version 3
run General-2-20260102-01:57:59-5986
attr configname General
attr datetime 20260102-01:57:59
attr datetimef 20260102-015759
attr experiment General
attr inifile omnetpp.ini
attr iterationvars ""
attr iterationvarsd ""
attr iterationvarsf ""
attr measurement ""
attr network clusteringmanet.simulations.ClusteringNetwork
attr processid 5986
attr repetition 2
attr replication #2
attr resultdir results
attr runnumber 2
attr seedset 2
config image-path ../../inet-4.5.4/images
config network clusteringmanet.simulations.ClusteringNetwork
config sim-time-limit 180s
config repeat 10
config seed-set 2
config *.host[*].numApps 1
config *.host[*].app[0].typename GraphColoringClustering
config *.host[*].hasUdp true
config ClusteringNetwork.numHosts 20
config *.host[*].mobility.typename RandomWaypointMobility
config *.host[*].mobility.initialZ 0m
config *.host[*].mobility.initFromDisplayString false
config *.host[*].mobility.constraintAreaMinX 0m
config *.host[*].mobility.constraintAreaMinY 0m
config *.host[*].mobility.constraintAreaMinZ 0m
config *.host[*].mobility.constraintAreaMaxX 1000m
config *.host[*].mobility.constraintAreaMaxY 1000m
config *.host[*].mobility.constraintAreaMaxZ 0m
config *.host[*].mobility.speed "uniform(5kmph, 15kmph)"
config *.host[*].mobility.waitTime 1s
config *.host[*].wlan[0].typename AckingWirelessInterface
config *.host[*].wlan[0].radio.transmitter.power 2mW
config *.host[*].wlan[0].radio.transmitter.bitrate 6Mbps
config *.host[*].wlan[0].radio.receiver.sensitivity -85dBm
config *.host[*].wlan[0].radio.receiver.snirThreshold 4dB
config *.host[*].wlan[0].radio.transmitter.communicationRange 250m
config *.host[*].wlan[0].mac.bitrate 6Mbps
config *.host[*].wlan[0].radio.receiver.bitrate 6Mbps
config *.host[*].wlan[0].bitrate 6Mbps
config *.host[*].app[0].helloInterval 1s
config *.host[*].app[0].helloJitter 0.04s
config *.host[*].app[0].neighborTimeout 4s
config *.host[*].app[0].maintenanceInterval 1s
config *.host[*].app[0].coloringInterval 1.5s
config *.host[*].app[0].dataInterval 3s
config *.host[*].app[0].dataJitter 0.5s
config *.host[*].app[0].localPort 5000
config *.host[*].app[0].destPort 5000

par ClusteringNetwork.radioMedium.propagation typename "\"inet.physicallayer.wireless.common.propagation.ConstantSpeedPropagation\""
par ClusteringNetwork.radioMedium.propagation propagationSpeed 2.99792e+08mps
attr unit mps
par ClusteringNetwork.radioMedium.propagation ignoreMovementDuringTransmission true
par ClusteringNetwork.radioMedium.propagation ignoreMovementDuringPropagation true
par ClusteringNetwork.radioMedium.propagation ignoreMovementDuringReception true
scalar ClusteringNetwork.radioMedium.propagation "Arrival computation count" 260585
par ClusteringNetwork.radioMedium.analogModel typename "\"inet.physicallayer.wireless.unitdisk.UnitDiskAnalogModel\""
par ClusteringNetwork.radioMedium.pathLoss typename "\"inet.physicallayer.wireless.common.pathloss.FreeSpacePathLoss\""
par ClusteringNetwork.radioMedium.pathLoss alpha 2
par ClusteringNetwork.radioMedium.pathLoss systemLoss 0dB
attr unit dB
par ClusteringNetwork.radioMedium.mediumLimitCache typename "\"inet.physicallayer.wireless.common.medium.MediumLimitCache\""
par ClusteringNetwork.radioMedium.mediumLimitCache centerFrequency "nan Hz"
attr unit Hz
par ClusteringNetwork.radioMedium.mediumLimitCache maxSpeed "nan mps"
attr unit mps
par ClusteringNetwork.radioMedium.mediumLimitCache maxTransmissionPower "nan W"
attr unit W
par ClusteringNetwork.radioMedium.mediumLimitCache minInterferencePower "nan dBm"
attr unit dBm
par ClusteringNetwork.radioMedium.mediumLimitCache minReceptionPower "nan dBm"
attr unit dBm
par ClusteringNetwork.radioMedium.mediumLimitCache maxAntennaGain 0dB
attr unit dB
par ClusteringNetwork.radioMedium.mediumLimitCache minInterferenceTime 1e-12s
attr unit s
par ClusteringNetwork.radioMedium.mediumLimitCache maxTransmissionDuration 0.01s
attr unit s
par ClusteringNetwork.radioMedium.mediumLimitCache maxCommunicationRange "nan m"
attr unit m
par ClusteringNetwork.radioMedium.mediumLimitCache maxInterferenceRange "nan m"
attr unit m
par ClusteringNetwork.radioMedium.communicationCache typename "\"inet.physicallayer.wireless.common.communicationcache.VectorCommunicationCache\""
par ClusteringNetwork.radioMedium typename "\"inet.physicallayer.wireless.unitdisk.UnitDiskRadioMedium\""
par ClusteringNetwork.radioMedium physicalEnvironmentModule "\"physicalEnvironment\""
par ClusteringNetwork.radioMedium signalAnalogRepresentation "\"unitDisk\""
attr enum unitDisk,scalar,dimensional
par ClusteringNetwork.radioMedium rangeFilter "\"\""
par ClusteringNetwork.radioMedium radioModeFilter false
par ClusteringNetwork.radioMedium listeningFilter false
par ClusteringNetwork.radioMedium macAddressFilter false
par ClusteringNetwork.radioMedium recordTransmissionLog false
par ClusteringNetwork.radioMedium recordReceptionLog false
scalar ClusteringNetwork.radioMedium "transmission count" 13715
scalar ClusteringNetwork.radioMedium "signal send count" 260585
scalar ClusteringNetwork.radioMedium "reception computation count" 260585
scalar ClusteringNetwork.radioMedium "interference computation count" 797550
scalar ClusteringNetwork.radioMedium "reception decision computation count" 77127
scalar ClusteringNetwork.radioMedium "listening decision computation count" 459838
scalar ClusteringNetwork.radioMedium "reception cache hit" 80.480904491748
attr unit %
scalar ClusteringNetwork.radioMedium "interference cache hit" 66.666666666667
attr unit %
scalar ClusteringNetwork.radioMedium "noise cache hit" 0
attr unit %
scalar ClusteringNetwork.radioMedium "snir cache hit" 50
attr unit %
scalar ClusteringNetwork.radioMedium "reception decision cache hit" 50
attr unit %
scalar ClusteringNetwork.radioMedium "reception result cache hit" 0
attr unit %
par ClusteringNetwork.configurator typename "\"inet.networklayer.configurator.ipv4.Ipv4NetworkConfigurator\""
par ClusteringNetwork.configurator minLinkWeight 0.001
par ClusteringNetwork.configurator configureIsolatedNetworksSeparatly false
par ClusteringNetwork.configurator config "<config>...</config> at content:1"
par ClusteringNetwork.configurator assignAddresses true
par ClusteringNetwork.configurator assignUniqueAddresses true
par ClusteringNetwork.configurator assignDisjunctSubnetAddresses true
par ClusteringNetwork.configurator addStaticRoutes true
par ClusteringNetwork.configurator addDefaultRoutes true
par ClusteringNetwork.configurator addSubnetRoutes true
par ClusteringNetwork.configurator addDirectRoutes true
par ClusteringNetwork.configurator optimizeRoutes true
par ClusteringNetwork.configurator dumpTopology false
par ClusteringNetwork.configurator dumpLinks false
par ClusteringNetwork.configurator dumpAddresses false
par ClusteringNetwork.configurator dumpRoutes false
par ClusteringNetwork.configurator dumpConfig "\"\""
par ClusteringNetwork.host[0].radioIn[0].channel typename "\"ned.IdealChannel\""
par ClusteringNetwork.host[0].mobility typename "\"inet.mobility.single.RandomWaypointMobility\""
par ClusteringNetwork.host[0].mobility subjectModule "\"^\""
par ClusteringNetwork.host[0].mobility coordinateSystemModule "\"\""
par ClusteringNetwork.host[0].mobility displayStringTextFormat "\"p: %p\\nv: %v\""
attr mutable ""
par ClusteringNetwork.host[0].mobility updateDisplayString true
par ClusteringNetwork.host[0].mobility constraintAreaMinX 0m
attr unit m
par ClusteringNetwork.host[0].mobility constraintAreaMinY 0m
attr unit m
par ClusteringNetwork.host[0].mobility constraintAreaMinZ 0m
attr unit m
par ClusteringNetwork.host[0].mobility constraintAreaMaxX 1000m
attr unit m
par ClusteringNetwork.host[0].mobility constraintAreaMaxY 1000m
attr unit m
par ClusteringNetwork.host[0].mobility constraintAreaMaxZ 0m
attr unit m
par ClusteringNetwork.host[0].mobility updateInterval 0.1s
attr unit s
par ClusteringNetwork.host[0].mobility faceForward true
par ClusteringNetwork.host[0].mobility initialX 435.995m
attr unit m
par ClusteringNetwork.host[0].mobility initialY 185.082m
attr unit m
par ClusteringNetwork.host[0].mobility initialZ 0m
attr unit m
par ClusteringNetwork.host[0].mobility initFromDisplayString false
par ClusteringNetwork.host[0].mobility speed "uniform(5kmph, 15kmph)"
attr unit mps
par ClusteringNetwork.host[0].mobility waitTime 1s
attr unit s
par ClusteringNetwork.host[0].interfaceTable typename "\"inet.networklayer.common.InterfaceTable\""
par ClusteringNetwork.host[0].interfaceTable displayAddresses false
par ClusteringNetwork.host[0].cb typename "\"inet.common.MessageDispatcher\""
par ClusteringNetwork.host[0].cb displayStringTextFormat "\"processed %p pk (%l)\""
par ClusteringNetwork.host[0].cb forwardServiceRegistration true
par ClusteringNetwork.host[0].cb forwardProtocolRegistration true
par ClusteringNetwork.host[0].bl typename "\"inet.common.MessageDispatcher\""
par ClusteringNetwork.host[0].bl displayStringTextFormat "\"processed %p pk (%l)\""
par ClusteringNetwork.host[0].bl forwardServiceRegistration true
par ClusteringNetwork.host[0].bl forwardProtocolRegistration true
par ClusteringNetwork.host[0].li typename "\"inet.common.MessageDispatcher\""
par ClusteringNetwork.host[0].li displayStringTextFormat "\"processed %p pk (%l)\""
par ClusteringNetwork.host[0].li forwardServiceRegistration true
par ClusteringNetwork.host[0].li forwardProtocolRegistration true
par ClusteringNetwork.host[0].lo[0].upperLayerIn.channel typename "\"ned.IdealChannel\""
par ClusteringNetwork.host[0].lo[0].lo.upperLayerOut.channel typename "\"ned.IdealChannel\""
par ClusteringNetwork.host[0].lo[0].lo typename "\"inet.linklayer.loopback.Loopback\""
par ClusteringNetwork.host[0].lo[0].lo interfaceTableModule "\"ClusteringNetwork.host[0].interfaceTable\""
par ClusteringNetwork.host[0].lo[0].lo mtu 4470B
attr unit B
scalar ClusteringNetwork.host[0].lo[0].lo rcvdPkFromHl:count 176
attr interpolationmode none
attr recordingmode count
attr source packetReceivedFromUpper
attr title "packets received from higher layer, count"
scalar ClusteringNetwork.host[0].lo[0].lo rcvdPkFromHl:sum(packetBytes) 5104
attr interpolationmode none
attr recordingmode sum(packetBytes)
attr source packetReceivedFromUpper
attr title "packets received from higher layer, sum(packetBytes)"
scalar ClusteringNetwork.host[0].lo[0].lo passedUpPk:count 176
attr interpolationmode none
attr recordingmode count
attr source packetSentToUpper
attr title "packets passed to higher layer, count"
scalar ClusteringNetwork.host[0].lo[0].lo passedUpPk:sum(packetBytes) 5104
attr interpolationmode none
attr recordingmode sum(packetBytes)
attr source packetSentToUpper
attr title "packets passed to higher layer, sum(packetBytes)"
par ClusteringNetwork.host[0].lo[0] typename "\"inet.linklayer.loopback.LoopbackInterface\""
par ClusteringNetwork.host[0].lo[0] displayStringTextFormat "\"%a (%i)\\n%m\""
par ClusteringNetwork.host[0].lo[0] recordPcap false
par ClusteringNetwork.host[0].lo[0] numPcapRecorders 0
par ClusteringNetwork.host[0].lo[0] interfaceTableModule "\"ClusteringNetwork.host[0].interfaceTable\""
scalar ClusteringNetwork.host[0].lo[0] packetDropInterfaceDown:count 0
attr interpolationmode none
attr recordingmode count
attr source packetDropReasonIsInterfaceDown(packetDropped)
attr title "packet drops: interface down, count"
scalar ClusteringNetwork.host[0].lo[0] packetDropInterfaceDown:sum(packetBytes) 0
attr interpolationmode none
attr recordingmode sum(packetBytes)
attr source packetDropReasonIsInterfaceDown(packetDropped)
attr title "packet drops: interface down, sum(packetBytes)"
scalar ClusteringNetwork.host[0].lo[0] packetDropNoCarrier:count 0
attr interpolationmode none
attr recordingmode count
attr source packetDropReasonIsNoCarrier(packetDropped)
attr title "packet drops: no carrier, count"
scalar ClusteringNetwork.host[0].lo[0] packetDropNoCarrier:sum(packetBytes) 0
attr interpolationmode none
attr recordingmode sum(packetBytes)
attr source packetDropReasonIsNoCarrier(packetDropped)
attr title "packet drops: no carrier, sum(packetBytes)"
par ClusteringNetwork.host[0].wlan[0].upperLayerIn.channel typename "\"ned.IdealChannel\""
par ClusteringNetwork.host[0].wlan[0].radioIn.channel typename "\"ned.IdealChannel\""
par ClusteringNetwork.host[0].wlan[0].mac.upperLayerOut.channel typename "\"ned.IdealChannel\""
par ClusteringNetwork.host[0].wlan[0].queue typename "\"inet.queueing.queue.DropTailQueue\""
par ClusteringNetwork.host[0].wlan[0].queue displayStringTextFormat "\"contains %p pk (%l) pushed %u\\npulled %o removed %r dropped %d\""
par ClusteringNetwork.host[0].wlan[0].queue packetCapacity 100
par ClusteringNetwork.host[0].wlan[0].queue dataCapacity -1b
attr unit b
par ClusteringNetwork.host[0].wlan[0].queue dropperClass "\"inet::queueing::PacketAtCollectionEndDropper\""
par ClusteringNetwork.host[0].wlan[0].queue comparatorClass "\"\""
par ClusteringNetwork.host[0].wlan[0].queue bufferModule "\"\""
scalar ClusteringNetwork.host[0].wlan[0].queue queueLength:last 0
attr autoWarmupFilter false
attr interpolationmode sample-hold
attr recordingmode last
attr source "warmup(atomic(constant0(packetPushEnded) + count(packetPushStarted) - count(packetPulled) - count(packetRemoved) - count(packetDropped)))"
attr title "queue length, last"
attr unit pk
scalar ClusteringNetwork.host[0].wlan[0].queue queueLength:max 16
attr autoWarmupFilter false
attr interpolationmode sample-hold
attr recordingmode max
attr source "warmup(atomic(constant0(packetPushEnded) + count(packetPushStarted) - count(packetPulled) - count(packetRemoved) - count(packetDropped)))"
attr title "queue length, max"
attr unit pk
scalar ClusteringNetwork.host[0].wlan[0].queue queueLength:timeavg 0.069194261944683
attr autoWarmupFilter false
attr interpolationmode sample-hold
attr recordingmode timeavg
attr source "warmup(atomic(constant0(packetPushEnded) + count(packetPushStarted) - count(packetPulled) - count(packetRemoved) - count(packetDropped)))"
attr title "queue length, timeavg"
attr unit pk
scalar ClusteringNetwork.host[0].wlan[0].queue queueBitLength:last 0
attr autoWarmupFilter false
attr interpolationmode sample-hold
attr recordingmode last
attr source "warmup(atomic(constant0(packetPushEnded) + sum(packetLength(packetPushStarted)) - sum(packetLength(packetPulled)) - sum(packetLength(packetRemoved)) - sum(packetLength(packetDropped))))"
attr title "queue bit length, last"
attr unit b
scalar ClusteringNetwork.host[0].wlan[0].queue queueBitLength:max 16384
attr autoWarmupFilter false
attr interpolationmode sample-hold
attr recordingmode max
attr source "warmup(atomic(constant0(packetPushEnded) + sum(packetLength(packetPushStarted)) - sum(packetLength(packetPulled)) - sum(packetLength(packetRemoved)) - sum(packetLength(packetDropped))))"
attr title "queue bit length, max"
attr unit b
scalar ClusteringNetwork.host[0].wlan[0].queue queueBitLength:timeavg 68.299739837132
attr autoWarmupFilter false
attr interpolationmode sample-hold
attr recordingmode timeavg
attr source "warmup(atomic(constant0(packetPushEnded) + sum(packetLength(packetPushStarted)) - sum(packetLength(packetPulled)) - sum(packetLength(packetRemoved)) - sum(packetLength(packetDropped))))"
attr title "queue bit length, timeavg"
attr unit b
statistic ClusteringNetwork.host[0].wlan[0].queue queueingTime:histogram
field count 1007
field mean 0.012368388431026
field stddev 0.038919120793004
field min 0
field max 0.295070048399
field sum 12.454967150043
field sqrsum 1.6778340226876
attr interpolationmode none
attr recordingmode histogram
attr source queueingTime(packetPulled)
attr title "queueing times"
attr unit s
bin	-inf	0
bin	0	879
bin	0.005	6
bin	0.01	2
bin	0.015	4
bin	0.02	2
bin	0.025	3
bin	0.03	2
bin	0.035	1
bin	0.04	1
bin	0.045	3
bin	0.05	7
bin	0.055	1
bin	0.06	1
bin	0.065	4
bin	0.07	2
bin	0.075	4
bin	0.08	2
bin	0.085	1
bin	0.09	13
bin	0.095	28
bin	0.1	14
bin	0.105	3
bin	0.11	3
bin	0.115	0
bin	0.12	1
bin	0.125	0
bin	0.13	0
bin	0.135	0
bin	0.14	0
bin	0.145	1
bin	0.15	0
bin	0.155	2
bin	0.16	1
bin	0.165	0
bin	0.17	1
bin	0.175	0
bin	0.18	0
bin	0.185	0
bin	0.19	0
bin	0.195	4
bin	0.2	1
bin	0.205	2
bin	0.21	2
bin	0.215	1
bin	0.22	0
bin	0.225	0
bin	0.23	0
bin	0.235	0
bin	0.24	0
bin	0.245	1
bin	0.25	0
bin	0.255	0
bin	0.26	0
bin	0.265	0
bin	0.27	0
bin	0.275	1
bin	0.28	0
bin	0.285	0
bin	0.29	2
bin	0.295	1
bin	0.3	0
scalar ClusteringNetwork.host[0].wlan[0].queue outgoingPackets:count 1007
attr recordingmode count
attr source packetPulled
attr title "outgoing packets, count"
attr unit pk
scalar ClusteringNetwork.host[0].wlan[0].queue outgoingPacketLengths:sum 881376
attr interpolationmode none
attr recordingmode sum
attr source packetLength(packetPulled)
attr title "outgoing packet lengths, sum"
attr unit b
statistic ClusteringNetwork.host[0].wlan[0].queue outgoingPacketLengths:histogram
field count 1007
field mean 875.24925521351
field stddev 309.61528176228
field min 224
field max 1024
field sum 881376
field sqrsum 867860480
attr interpolationmode none
attr recordingmode histogram
attr source packetLength(packetPulled)
attr title "outgoing packet lengths"
attr unit b
bin	-inf	0
bin	20	0
bin	40	0
bin	60	0
bin	80	0
bin	100	0
bin	120	0
bin	140	0
bin	160	0
bin	180	0
bin	200	0
bin	220	189
bin	240	0
bin	260	0
bin	280	0
bin	300	0
bin	320	0
bin	340	0
bin	360	0
bin	380	0
bin	400	0
bin	420	0
bin	440	0
bin	460	0
bin	480	0
bin	500	0
bin	520	0
bin	540	0
bin	560	0
bin	580	0
bin	600	0
bin	620	0
bin	640	0
bin	660	0
bin	680	0
bin	700	0
bin	720	0
bin	740	0
bin	760	0
bin	780	0
bin	800	0
bin	820	0
bin	840	0
bin	860	0
bin	880	0
bin	900	0
bin	920	0
bin	940	0
bin	960	0
bin	980	0
bin	1000	0
bin	1020	818
bin	1040	0
bin	1060	0
bin	1080	0
bin	1100	0
bin	1120	0
bin	1140	0
bin	1160	0
bin	1180	0
bin	1200	0
bin	1220	0
bin	1240	0
statistic ClusteringNetwork.host[0].wlan[0].queue flowQueueingTime:histogram
field count 0
field mean -nan
field stddev nan
field min nan
field max nan
field sum 0
field sqrsum 0
attr interpolationmode none
attr recordingmode histogram
attr source queueingTime(demuxFlow(packetPulled))
attr title "flow queueing times"
attr unit s
bin	-inf	0
bin	0	0
bin	1	0
scalar ClusteringNetwork.host[0].wlan[0].queue incomingPackets:count 1007
attr recordingmode count
attr source packetPushStarted
attr title "incoming packets, count"
attr unit pk
scalar ClusteringNetwork.host[0].wlan[0].queue incomingPacketLengths:sum 881376
attr interpolationmode none
attr recordingmode sum
attr source packetLength(packetPushStarted)
attr title "incoming packet lengths, sum"
attr unit b
statistic ClusteringNetwork.host[0].wlan[0].queue incomingPacketLengths:histogram
field count 1007
field mean 875.24925521351
field stddev 309.61528176228
field min 224
field max 1024
field sum 881376
field sqrsum 867860480
attr interpolationmode none
attr recordingmode histogram
attr source packetLength(packetPushStarted)
attr title "incoming packet lengths"
attr unit b
bin	-inf	0
bin	20	0
bin	40	0
bin	60	0
bin	80	0
bin	100	0
bin	120	0
bin	140	0
bin	160	0
bin	180	0
bin	200	0
bin	220	189
bin	240	0
bin	260	0
bin	280	0
bin	300	0
bin	320	0
bin	340	0
bin	360	0
bin	380	0
bin	400	0
bin	420	0
bin	440	0
bin	460	0
bin	480	0
bin	500	0
bin	520	0
bin	540	0
bin	560	0
bin	580	0
bin	600	0
bin	620	0
bin	640	0
bin	660	0
bin	680	0
bin	700	0
bin	720	0
bin	740	0
bin	760	0
bin	780	0
bin	800	0
bin	820	0
bin	840	0
bin	860	0
bin	880	0
bin	900	0
bin	920	0
bin	940	0
bin	960	0
bin	980	0
bin	1000	0
bin	1020	818
bin	1040	0
bin	1060	0
bin	1080	0
bin	1100	0
bin	1120	0
bin	1140	0
bin	1160	0
bin	1180	0
bin	1200	0
bin	1220	0
bin	1240	0
scalar ClusteringNetwork.host[0].wlan[0].queue droppedPacketsQueueOverflow:count 0
attr interpolationmode none
attr recordingmode count
attr source packetDropReasonIsQueueOverflow(packetDropped)
attr title "dropped packets: queue overflow, count"
attr unit pk
scalar ClusteringNetwork.host[0].wlan[0].queue droppedPacketLengthsQueueOverflow:sum 0
attr interpolationmode none
attr recordingmode sum
attr source packetLength(packetDropReasonIsQueueOverflow(packetDropped))
attr title "dropped packet lengths: queue overflow, sum"
attr unit b
par ClusteringNetwork.host[0].wlan[0].mac typename "\"inet.linklayer.acking.AckingMac\""
par ClusteringNetwork.host[0].wlan[0].mac interfaceTableModule "\"ClusteringNetwork.host[0].interfaceTable\""
par ClusteringNetwork.host[0].wlan[0].mac address "\"auto\""
attr mutable ""
par ClusteringNetwork.host[0].wlan[0].mac bitrate 6e+06bps
attr unit bps
par ClusteringNetwork.host[0].wlan[0].mac mtu 4470B
attr unit B
par ClusteringNetwork.host[0].wlan[0].mac headerLength 16B
attr unit B
par ClusteringNetwork.host[0].wlan[0].mac promiscuous false
par ClusteringNetwork.host[0].wlan[0].mac fullDuplex true
par ClusteringNetwork.host[0].wlan[0].mac useAck true
par ClusteringNetwork.host[0].wlan[0].mac ackTimeout 0.1s
attr unit s
scalar ClusteringNetwork.host[0].wlan[0].mac rcvdPkFromLl:count 3398
attr interpolationmode none
attr recordingmode count
attr source packetReceivedFromLower
attr title "packets received from lower layer, count"
scalar ClusteringNetwork.host[0].wlan[0].mac rcvdPkFromLl:sum(packetBytes) 388167
attr interpolationmode none
attr recordingmode sum(packetBytes)
attr source packetReceivedFromLower
attr title "packets received from lower layer, sum(packetBytes)"
scalar ClusteringNetwork.host[0].wlan[0].mac sentDownPk:count 1007
attr interpolationmode none
attr recordingmode count
attr source packetSentToLower
attr title "packets sent to lower layer, count"
scalar ClusteringNetwork.host[0].wlan[0].mac sentDownPk:sum(packetBytes) 126284
attr interpolationmode none
attr recordingmode sum(packetBytes)
attr source packetSentToLower
attr title "packets sent to lower layer, sum(packetBytes)"
scalar ClusteringNetwork.host[0].wlan[0].mac rcvdPkFromHl:count 1007
attr interpolationmode none
attr recordingmode count
attr source packetReceivedFromUpper
attr title "packets received from higher layer, count"
scalar ClusteringNetwork.host[0].wlan[0].mac rcvdPkFromHl:sum(packetBytes) 110172
attr interpolationmode none
attr recordingmode sum(packetBytes)
attr source packetReceivedFromUpper
attr title "packets received from higher layer, sum(packetBytes)"
scalar ClusteringNetwork.host[0].wlan[0].mac passedUpPk:count 1955
attr interpolationmode none
attr recordingmode count
attr source packetSentToUpper
attr title "packets passed to higher layer, count"
scalar ClusteringNetwork.host[0].wlan[0].mac passedUpPk:sum(packetBytes) 152090
attr interpolationmode none
attr recordingmode sum(packetBytes)
attr source packetSentToUpper
attr title "packets passed to higher layer, sum(packetBytes)"
scalar ClusteringNetwork.host[0].wlan[0].mac packetDropIncorrectlyReceived:count 110
attr interpolationmode none
attr recordingmode count
attr source packetDropReasonIsIncorrectlyReceived(packetDropped)
attr title "packet drop: incorrectly received, count"
scalar ClusteringNetwork.host[0].wlan[0].mac packetDropIncorrectlyReceived:sum(packetBytes) 14945
attr interpolationmode none
attr recordingmode sum(packetBytes)
attr source packetDropReasonIsIncorrectlyReceived(packetDropped)
attr title "packet drop: incorrectly received, sum(packetBytes)"
scalar ClusteringNetwork.host[0].wlan[0].mac packetDropInterfaceDown:count 0
attr interpolationmode none
attr recordingmode count
attr source packetDropReasonIsInterfaceDown(packetDropped)
attr title "packet drop: interface down, count"
scalar ClusteringNetwork.host[0].wlan[0].mac packetDropInterfaceDown:sum(packetBytes) 0
attr interpolationmode none
attr recordingmode sum(packetBytes)
attr source packetDropReasonIsInterfaceDown(packetDropped)
attr title "packet drop: interface down, sum(packetBytes)"
scalar ClusteringNetwork.host[0].wlan[0].mac packetDropNotAddressedToUs:count 1333
attr interpolationmode none
attr recordingmode count
attr source packetDropReasonIsNotAddressedToUs(packetDropped)
attr title "packet drop: not addressed to us, count"
scalar ClusteringNetwork.host[0].wlan[0].mac packetDropNotAddressedToUs:sum(packetBytes) 189852
attr interpolationmode none
attr recordingmode sum(packetBytes)
attr source packetDropReasonIsNotAddressedToUs(packetDropped)
attr title "packet drop: not addressed to us, sum(packetBytes)"
scalar ClusteringNetwork.host[0].wlan[0].mac linkBroken:count 63
attr interpolationmode none
attr recordingmode count
attr source linkBroken
attr title "link break, count"
par ClusteringNetwork.host[0].wlan[0].radio.antenna typename "\"inet.physicallayer.wireless.common.antenna.IsotropicAntenna\""
par ClusteringNetwork.host[0].wlan[0].radio.antenna mobilityModule "\"^.^.^.mobility\""
par ClusteringNetwork.host[0].wlan[0].radio.antenna numAntennas 1
par ClusteringNetwork.host[0].wlan[0].radio.transmitter typename "\"inet.physicallayer.wireless.unitdisk.UnitDiskTransmitter\""
par ClusteringNetwork.host[0].wlan[0].radio.transmitter preambleDuration 0s
attr unit s
par ClusteringNetwork.host[0].wlan[0].radio.transmitter headerLength 96b
attr unit b
par ClusteringNetwork.host[0].wlan[0].radio.transmitter bitrate 6e+06bps
attr unit bps
par ClusteringNetwork.host[0].wlan[0].radio.transmitter communicationRange 250m
attr unit m
par ClusteringNetwork.host[0].wlan[0].radio.transmitter interferenceRange 250m
attr unit m
par ClusteringNetwork.host[0].wlan[0].radio.transmitter detectionRange 250m
attr unit m
par ClusteringNetwork.host[0].wlan[0].radio.receiver typename "\"inet.physicallayer.wireless.unitdisk.UnitDiskReceiver\""
par ClusteringNetwork.host[0].wlan[0].radio.receiver ignoreInterference false
par ClusteringNetwork.host[0].wlan[0].radio typename "\"inet.physicallayer.wireless.unitdisk.UnitDiskRadio\""
par ClusteringNetwork.host[0].wlan[0].radio radioMediumModule "\"radioMedium\""
par ClusteringNetwork.host[0].wlan[0].radio energySourceModule "\"\""
par ClusteringNetwork.host[0].wlan[0].radio initialRadioMode "\"off\""
attr enum off,sleep,receiver,transmitter,transceiver
par ClusteringNetwork.host[0].wlan[0].radio switchingTimes "\"ms 0 0 0 0 0 0 0 0 0 0 0 0 0 0 0 0 0 0 0 0 0 0 0 0 0\""
par ClusteringNetwork.host[0].wlan[0].radio sendRawBytes false
par ClusteringNetwork.host[0].wlan[0].radio separateTransmissionParts false
par ClusteringNetwork.host[0].wlan[0].radio separateReceptionParts false
par ClusteringNetwork.host[0].wlan[0].radio displayCommunicationRange false
par ClusteringNetwork.host[0].wlan[0].radio displayInterferenceRange false
scalar ClusteringNetwork.host[0].wlan[0].radio radioMode:count 3
attr interpolationmode sample-hold
attr recordingmode count
attr source radioModeChanged
attr title "Radio mode, count"
scalar ClusteringNetwork.host[0].wlan[0].radio receptionState:count 6895
attr interpolationmode sample-hold
attr recordingmode count
attr source receptionStateChanged
attr title "Radio reception state, count"
scalar ClusteringNetwork.host[0].wlan[0].radio transmissionState:count 2015
attr interpolationmode sample-hold
attr recordingmode count
attr source transmissionStateChanged
attr title "Radio transmission state, count"
statistic ClusteringNetwork.host[0].wlan[0].radio minSnir:histogram
field count 0
field mean -nan
field stddev nan
field min nan
field max nan
field sum 0
field sqrsum 0
attr recordingmode histogram
attr source minimumSnir(packetSentToUpper)
attr title "Min SNIR"
bin	-inf	0
bin	0	0
bin	1	0
statistic ClusteringNetwork.host[0].wlan[0].radio packetErrorRate:histogram
field count 3398
field mean 0.032371983519717
field stddev 0.17701203148765
field min 0
field max 1
field sum 110
field sqrsum 110
attr recordingmode histogram
attr source packetErrorRate(packetSentToUpper)
attr title "Packet error rate"
bin	-inf	0
bin	0	3288
bin	1	110
bin	2	0
statistic ClusteringNetwork.host[0].wlan[0].radio bitErrorRate:histogram
field count 3398
field mean 0.032371983519717
field stddev 0.17701203148765
field min 0
field max 1
field sum 110
field sqrsum 110
attr recordingmode histogram
attr source bitErrorRate(packetSentToUpper)
attr title "Bit error rate"
bin	-inf	0
bin	0	3288
bin	1	110
bin	2	0
statistic ClusteringNetwork.host[0].wlan[0].radio symbolErrorRate:histogram
field count 3398
field mean 0.032371983519717
field stddev 0.17701203148765
field min 0
field max 1
field sum 110
field sqrsum 110
attr recordingmode histogram
attr source symbolErrorRate(packetSentToUpper)
attr title "Symbol error rate"
bin	-inf	0
bin	0	3288
bin	1	110
bin	2	0
par ClusteringNetwork.host[0].wlan[0] typename "\"inet.linklayer.acking.AckingWirelessInterface\""
par ClusteringNetwork.host[0].wlan[0] displayStringTextFormat "\"%a (%i)\\n%m\""
par ClusteringNetwork.host[0].wlan[0] recordPcap false
par ClusteringNetwork.host[0].wlan[0] numPcapRecorders 0
par ClusteringNetwork.host[0].wlan[0] interfaceTableModule "\"ClusteringNetwork.host[0].interfaceTable\""
par ClusteringNetwork.host[0].wlan[0] energySourceModule "\"\""
par ClusteringNetwork.host[0].wlan[0] bitrate 6e+06bps
attr unit bps
scalar ClusteringNetwork.host[0].wlan[0] packetDropInterfaceDown:count 0
attr interpolationmode none
attr recordingmode count
attr source packetDropReasonIsInterfaceDown(packetDropped)
attr title "packet drops: interface down, count"
scalar ClusteringNetwork.host[0].wlan[0] packetDropInterfaceDown:sum(packetBytes) 0
attr interpolationmode none
attr recordingmode sum(packetBytes)
attr source packetDropReasonIsInterfaceDown(packetDropped)
attr title "packet drops: interface down, sum(packetBytes)"
scalar ClusteringNetwork.host[0].wlan[0] packetDropNoCarrier:count 0
attr interpolationmode none
attr recordingmode count
attr source packetDropReasonIsNoCarrier(packetDropped)
attr title "packet drops: no carrier, count"
scalar ClusteringNetwork.host[0].wlan[0] packetDropNoCarrier:sum(packetBytes) 0
attr interpolationmode none
attr recordingmode sum(packetBytes)
attr source packetDropReasonIsNoCarrier(packetDropped)
attr title "packet drops: no carrier, sum(packetBytes)"
par ClusteringNetwork.host[0].ipv4.transportIn.channel typename "\"ned.IdealChannel\""
par ClusteringNetwork.host[0].ipv4.up.out[0].channel typename "\"ned.IdealChannel\""
par ClusteringNetwork.host[0].ipv4.lp.out[2].channel typename "\"ned.IdealChannel\""
par ClusteringNetwork.host[0].ipv4.ifIn.channel typename "\"ned.IdealChannel\""
par ClusteringNetwork.host[0].ipv4.configurator typename "\"inet.networklayer.configurator.ipv4.Ipv4NodeConfigurator\""
par ClusteringNetwork.host[0].ipv4.configurator interfaceTableModule "\"ClusteringNetwork.host[0].interfaceTable\""
par ClusteringNetwork.host[0].ipv4.configurator routingTableModule "\"ClusteringNetwork.host[0].ipv4.routingTable\""
par ClusteringNetwork.host[0].ipv4.configurator networkConfiguratorModule "\"configurator\""
par ClusteringNetwork.host[0].ipv4.configurator configureRoutingTable true
par ClusteringNetwork.host[0].ipv4.routingTable typename "\"inet.networklayer.ipv4.Ipv4RoutingTable\""
par ClusteringNetwork.host[0].ipv4.routingTable interfaceTableModule "\"ClusteringNetwork.host[0].interfaceTable\""
par ClusteringNetwork.host[0].ipv4.routingTable routerId "\"auto\""
par ClusteringNetwork.host[0].ipv4.routingTable netmaskRoutes "\"*\""
par ClusteringNetwork.host[0].ipv4.routingTable forwarding true
par ClusteringNetwork.host[0].ipv4.routingTable multicastForwarding false
par ClusteringNetwork.host[0].ipv4.routingTable useAdminDist false
par ClusteringNetwork.host[0].ipv4.routingTable routingFile "\"\""
par ClusteringNetwork.host[0].ipv4.natTable typename "\"inet.networklayer.ipv4.Ipv4NatTable\""
par ClusteringNetwork.host[0].ipv4.natTable networkProtocolModule "\"^.ip\""
par ClusteringNetwork.host[0].ipv4.natTable config "<config/> at content:1"
par ClusteringNetwork.host[0].ipv4.up typename "\"inet.common.MessageDispatcher\""
par ClusteringNetwork.host[0].ipv4.up displayStringTextFormat "\"processed %p pk (%l)\""
par ClusteringNetwork.host[0].ipv4.up forwardServiceRegistration true
par ClusteringNetwork.host[0].ipv4.up forwardProtocolRegistration true
par ClusteringNetwork.host[0].ipv4.igmp typename "\"inet.networklayer.ipv4.Igmpv2\""
par ClusteringNetwork.host[0].ipv4.igmp interfaceTableModule "\"ClusteringNetwork.host[0].interfaceTable\""
par ClusteringNetwork.host[0].ipv4.igmp routingTableModule "\"ClusteringNetwork.host[0].ipv4.routingTable\""
par ClusteringNetwork.host[0].ipv4.igmp crcMode "\"declared\""
attr enum declared,computed
par ClusteringNetwork.host[0].ipv4.igmp enabled true
par ClusteringNetwork.host[0].ipv4.igmp robustnessVariable 2
par ClusteringNetwork.host[0].ipv4.igmp queryInterval 125s
attr unit s
par ClusteringNetwork.host[0].ipv4.igmp queryResponseInterval 10s
attr unit s
par ClusteringNetwork.host[0].ipv4.igmp groupMembershipInterval 260s
attr unit s
par ClusteringNetwork.host[0].ipv4.igmp otherQuerierPresentInterval 255s
attr unit s
par ClusteringNetwork.host[0].ipv4.igmp startupQueryInterval 31.25s
attr unit s
par ClusteringNetwork.host[0].ipv4.igmp startupQueryCount 2
par ClusteringNetwork.host[0].ipv4.igmp lastMemberQueryInterval 1s
attr unit s
par ClusteringNetwork.host[0].ipv4.igmp lastMemberQueryCount 2
par ClusteringNetwork.host[0].ipv4.igmp unsolicitedReportInterval 10s
attr unit s
par ClusteringNetwork.host[0].ipv4.icmp typename "\"inet.networklayer.ipv4.Icmp\""
par ClusteringNetwork.host[0].ipv4.icmp interfaceTableModule "\"ClusteringNetwork.host[0].interfaceTable\""
par ClusteringNetwork.host[0].ipv4.icmp routingTableModule "\"ClusteringNetwork.host[0].ipv4.routingTable\""
par ClusteringNetwork.host[0].ipv4.icmp crcMode "\"declared\""
attr enum declared,computed
attr mutable ""
par ClusteringNetwork.host[0].ipv4.icmp quoteLength 8B
attr mutable ""
attr unit B
par ClusteringNetwork.host[0].ipv4.mp typename "\"inet.common.MessageDispatcher\""
par ClusteringNetwork.host[0].ipv4.mp displayStringTextFormat "\"processed %p pk (%l)\""
par ClusteringNetwork.host[0].ipv4.mp forwardServiceRegistration true
par ClusteringNetwork.host[0].ipv4.mp forwardProtocolRegistration true
par ClusteringNetwork.host[0].ipv4.ip typename "\"inet.networklayer.ipv4.Ipv4\""
par ClusteringNetwork.host[0].ipv4.ip interfaceTableModule "\"ClusteringNetwork.host[0].interfaceTable\""
par ClusteringNetwork.host[0].ipv4.ip routingTableModule "\"ClusteringNetwork.host[0].ipv4.routingTable\""
par ClusteringNetwork.host[0].ipv4.ip arpModule "\"ClusteringNetwork.host[0].ipv4.arp\""
par ClusteringNetwork.host[0].ipv4.ip icmpModule "\"ClusteringNetwork.host[0].ipv4.icmp\""
par ClusteringNetwork.host[0].ipv4.ip crcMode "\"declared\""
attr enum declared,computed
par ClusteringNetwork.host[0].ipv4.ip timeToLive 32
par ClusteringNetwork.host[0].ipv4.ip multicastTimeToLive 32
par ClusteringNetwork.host[0].ipv4.ip fragmentTimeout 60s
attr unit s
par ClusteringNetwork.host[0].ipv4.ip limitedBroadcast false
par ClusteringNetwork.host[0].ipv4.ip directBroadcastInterfaces "\"\""
scalar ClusteringNetwork.host[0].ipv4.ip packetDropAddressResolutionFailed:count 0
attr interpolationmode none
attr recordingmode count
attr source packetDropReasonIsAddressResolutionFailed(packetDropped)
attr title "packet drop: address resolution failed, count"
scalar ClusteringNetwork.host[0].ipv4.ip packetDropAddressResolutionFailed:sum(packetBytes) 0
attr interpolationmode none
attr recordingmode sum(packetBytes)
attr source packetDropReasonIsAddressResolutionFailed(packetDropped)
attr title "packet drop: address resolution failed, sum(packetBytes)"
scalar ClusteringNetwork.host[0].ipv4.ip packetDropHopLimitReached:count 0
attr interpolationmode none
attr recordingmode count
attr source packetDropReasonIsHopLimitReached(packetDropped)
attr title "packet drop: hop limit reached, count"
scalar ClusteringNetwork.host[0].ipv4.ip packetDropHopLimitReached:sum(packetBytes) 0
attr interpolationmode none
attr recordingmode sum(packetBytes)
attr source packetDropReasonIsHopLimitReached(packetDropped)
attr title "packet drop: hop limit reached, sum(packetBytes)"
scalar ClusteringNetwork.host[0].ipv4.ip packetDropForwardingDisabled:count 0
attr interpolationmode none
attr recordingmode count
attr source packetDropReasonIsForwardingDisabled(packetDropped)
attr title "packet drop: forwarding disabled, count"
scalar ClusteringNetwork.host[0].ipv4.ip packetDropForwardingDisabled:sum(packetBytes) 0
attr interpolationmode none
attr recordingmode sum(packetBytes)
attr source packetDropReasonIsForwardingDisabled(packetDropped)
attr title "packet drop: forwarding disabled, sum(packetBytes)"
scalar ClusteringNetwork.host[0].ipv4.ip packetDropNoInterfaceFound:count 0
attr interpolationmode none
attr recordingmode count
attr source packetDropReasonIsNoInterfaceFound(packetDropped)
attr title "packet drop: no interface found, count"
scalar ClusteringNetwork.host[0].ipv4.ip packetDropNoInterfaceFound:sum(packetBytes) 0
attr interpolationmode none
attr recordingmode sum(packetBytes)
attr source packetDropReasonIsNoInterfaceFound(packetDropped)
attr title "packet drop: no interface found, sum(packetBytes)"
scalar ClusteringNetwork.host[0].ipv4.ip packetDropNoRouteFound:count 0
attr interpolationmode none
attr recordingmode count
attr source packetDropReasonIsNoRouteFound(packetDropped)
attr title "packet drop: no route found, count"
scalar ClusteringNetwork.host[0].ipv4.ip packetDropNoRouteFound:sum(packetBytes) 0
attr interpolationmode none
attr recordingmode sum(packetBytes)
attr source packetDropReasonIsNoRouteFound(packetDropped)
attr title "packet drop: no route found, sum(packetBytes)"
scalar ClusteringNetwork.host[0].ipv4.ip packetDropUndefined:count 0
attr interpolationmode none
attr recordingmode count
attr source packetDropReasonIsUndefined(packetDropped)
attr title "packet drop: undefined, count"
scalar ClusteringNetwork.host[0].ipv4.ip packetDropUndefined:sum(packetBytes) 0
attr interpolationmode none
attr recordingmode sum(packetBytes)
attr source packetDropReasonIsUndefined(packetDropped)
attr title "packet drop: undefined, sum(packetBytes)"
par ClusteringNetwork.host[0].ipv4.arp typename "\"inet.networklayer.arp.ipv4.Arp\""
par ClusteringNetwork.host[0].ipv4.arp interfaceTableModule "\"ClusteringNetwork.host[0].interfaceTable\""
par ClusteringNetwork.host[0].ipv4.arp routingTableModule "\"ClusteringNetwork.host[0].ipv4.routingTable\""
par ClusteringNetwork.host[0].ipv4.arp retryTimeout 1s
attr unit s
par ClusteringNetwork.host[0].ipv4.arp retryCount 3
par ClusteringNetwork.host[0].ipv4.arp cacheTimeout 120s
attr unit s
par ClusteringNetwork.host[0].ipv4.arp proxyArpInterfaces "\"\""
scalar ClusteringNetwork.host[0].ipv4.arp arpResolutionFailed:count 0
attr recordingmode count
attr title "ARP failed resolutions, count"
scalar ClusteringNetwork.host[0].ipv4.arp arpResolutionCompleted:count 39
attr recordingmode count
attr title "ARP completed resolutions, count"
scalar ClusteringNetwork.host[0].ipv4.arp arpResolutionInitiated:count 3
attr recordingmode count
attr title "ARP initiated resolutions, count"
scalar ClusteringNetwork.host[0].ipv4.arp arpReplySent:count 10
attr recordingmode count
attr source arpReplySent
attr title "ARP replies sent, count"
scalar ClusteringNetwork.host[0].ipv4.arp arpReplySent:sum(packetBytes) 280
attr recordingmode sum(packetBytes)
attr source arpReplySent
attr title "ARP replies sent, sum(packetBytes)"
scalar ClusteringNetwork.host[0].ipv4.arp arpRequestSent:count 3
attr recordingmode count
attr source arpRequestSent
attr title "ARP request sent, count"
scalar ClusteringNetwork.host[0].ipv4.arp arpRequestSent:sum(packetBytes) 84
attr recordingmode sum(packetBytes)
attr source arpRequestSent
attr title "ARP request sent, sum(packetBytes)"
par ClusteringNetwork.host[0].ipv4.lp typename "\"inet.common.MessageDispatcher\""
par ClusteringNetwork.host[0].ipv4.lp displayStringTextFormat "\"processed %p pk (%l)\""
par ClusteringNetwork.host[0].ipv4.lp forwardServiceRegistration true
par ClusteringNetwork.host[0].ipv4.lp forwardProtocolRegistration true
par ClusteringNetwork.host[0].ipv4 typename "\"inet.networklayer.ipv4.Ipv4NetworkLayer\""
par ClusteringNetwork.host[0].ipv4 forwarding true
par ClusteringNetwork.host[0].ipv4 multicastForwarding false
par ClusteringNetwork.host[0].ipv4 interfaceTableModule "\"ClusteringNetwork.host[0].interfaceTable\""
par ClusteringNetwork.host[0].ipv4 displayStringTextFormat "\"%i\""
par ClusteringNetwork.host[0].nl typename "\"inet.common.MessageDispatcher\""
par ClusteringNetwork.host[0].nl displayStringTextFormat "\"processed %p pk (%l)\""
par ClusteringNetwork.host[0].nl forwardServiceRegistration true
par ClusteringNetwork.host[0].nl forwardProtocolRegistration true
par ClusteringNetwork.host[0].udp typename "\"inet.transportlayer.udp.Udp\""
par ClusteringNetwork.host[0].udp interfaceTableModule "\"ClusteringNetwork.host[0].interfaceTable\""
par ClusteringNetwork.host[0].udp icmpModule "\"^.ipv4.icmp\""
par ClusteringNetwork.host[0].udp icmpv6Module "\"^.ipv6.icmpv6\""
par ClusteringNetwork.host[0].udp crcMode "\"declared\""
attr enum disabled,declared,computed
par ClusteringNetwork.host[0].udp defaultMulticastLoop true
scalar ClusteringNetwork.host[0].udp packetReceived:count 2090
attr interpolationmode none
attr recordingmode count
attr source packetReceived
attr title "packets received, count"
scalar ClusteringNetwork.host[0].udp packetReceived:sum(packetBytes) 114246
attr interpolationmode none
attr recordingmode sum(packetBytes)
attr source packetReceived
attr title "packets received, sum(packetBytes)"
scalar ClusteringNetwork.host[0].udp packetSent:count 994
attr interpolationmode none
attr recordingmode count
attr source packetSent
attr title "packets sent, count"
scalar ClusteringNetwork.host[0].udp packetSent:sum(packetBytes) 89928
attr interpolationmode none
attr recordingmode sum(packetBytes)
attr source packetSent
attr title "packets sent, sum(packetBytes)"
scalar ClusteringNetwork.host[0].udp passedUpPk:count 2090
attr interpolationmode none
attr recordingmode count
attr source packetSentToUpper
attr title "packets passed up, count"
scalar ClusteringNetwork.host[0].udp droppedPkWrongPort:count 0
attr interpolationmode none
attr recordingmode count
attr source packetDropReasonIsNoPortFound(packetDropped)
attr title "packets dropped (wrong port), count"
scalar ClusteringNetwork.host[0].udp droppedPkBadChecksum:count 0
attr interpolationmode none
attr recordingmode count
attr source packetDropReasonIsIncorrectlyReceived(packetDropped)
attr title "packets dropped (checksum error), count"
par ClusteringNetwork.host[0].tcp typename "\"inet.transportlayer.tcp.Tcp\""
par ClusteringNetwork.host[0].tcp crcMode "\"declared\""
attr enum declared,computed
par ClusteringNetwork.host[0].tcp advertisedWindow 7504
par ClusteringNetwork.host[0].tcp delayedAcksEnabled false
par ClusteringNetwork.host[0].tcp nagleEnabled true
par ClusteringNetwork.host[0].tcp limitedTransmitEnabled false
par ClusteringNetwork.host[0].tcp increasedIWEnabled false
par ClusteringNetwork.host[0].tcp sackSupport false
par ClusteringNetwork.host[0].tcp windowScalingSupport false
par ClusteringNetwork.host[0].tcp windowScalingFactor -1
par ClusteringNetwork.host[0].tcp timestampSupport false
par ClusteringNetwork.host[0].tcp mss 536
par ClusteringNetwork.host[0].tcp msl 120s
attr unit s
par ClusteringNetwork.host[0].tcp tcpAlgorithmClass "\"TcpReno\""
par ClusteringNetwork.host[0].tcp useDataNotification false
par ClusteringNetwork.host[0].tcp dupthresh 3
par ClusteringNetwork.host[0].tcp initialSsthresh 4294967295
par ClusteringNetwork.host[0].tcp stopOperationExtraTime 0s
attr unit s
par ClusteringNetwork.host[0].tcp stopOperationTimeout 2s
attr unit s
par ClusteringNetwork.host[0].tcp ecnWillingness false
par ClusteringNetwork.host[0].tcp dctcpGamma 0.0625
par ClusteringNetwork.host[0].tn typename "\"inet.common.MessageDispatcher\""
par ClusteringNetwork.host[0].tn displayStringTextFormat "\"processed %p pk (%l)\""
par ClusteringNetwork.host[0].tn forwardServiceRegistration true
par ClusteringNetwork.host[0].tn forwardProtocolRegistration true
par ClusteringNetwork.host[0].app[0] typename "\"clusteringmanet.simulations.GraphColoringClustering\""
par ClusteringNetwork.host[0].app[0] helloInterval 1s
attr unit s
par ClusteringNetwork.host[0].app[0] helloJitter 0.04s
attr unit s
par ClusteringNetwork.host[0].app[0] neighborTimeout 4s
attr unit s
par ClusteringNetwork.host[0].app[0] maintenanceInterval 1s
attr unit s
par ClusteringNetwork.host[0].app[0] coloringInterval 1.5s
attr unit s
par ClusteringNetwork.host[0].app[0] dataInterval 3s
attr unit s
par ClusteringNetwork.host[0].app[0] dataJitter 0.5s
attr unit s
par ClusteringNetwork.host[0].app[0] localPort 5000
par ClusteringNetwork.host[0].app[0] destPort 5000
scalar ClusteringNetwork.host[0].app[0] "Final Sent" 54
scalar ClusteringNetwork.host[0].app[0] "Final Received" 45
scalar ClusteringNetwork.host[0].app[0] "Packet Delivery Ratio" 0.83333333333333
scalar ClusteringNetwork.host[0].app[0] totalReceived:count 45
attr recordingmode count
attr source dataReceived
scalar ClusteringNetwork.host[0].app[0] totalSent:count 54
attr recordingmode count
attr source dataSent
par ClusteringNetwork.host[0].at typename "\"inet.common.MessageDispatcher\""
par ClusteringNetwork.host[0].at displayStringTextFormat "\"processed %p pk (%l)\""
par ClusteringNetwork.host[0].at forwardServiceRegistration true
par ClusteringNetwork.host[0].at forwardProtocolRegistration true
par ClusteringNetwork.host[0] typename "\"clusteringmanet.simulations.GCCAdhocHost\""
par ClusteringNetwork.host[0] hasStatus false
par ClusteringNetwork.host[0] osgModel "\"\""
par ClusteringNetwork.host[0] osgModelColor "\"\""
par ClusteringNetwork.host[0] canvasImage "\"\""
par ClusteringNetwork.host[0] canvasImageColor "\"\""
par ClusteringNetwork.host[0] recordPcap false
par ClusteringNetwork.host[0] numPcapRecorders 0
par ClusteringNetwork.host[0] numLoInterfaces 1
par ClusteringNetwork.host[0] numWlanInterfaces 1
par ClusteringNetwork.host[0] numEthInterfaces 0
par ClusteringNetwork.host[0] numPppInterfaces 0
par ClusteringNetwork.host[0] numTunInterfaces 0
par ClusteringNetwork.host[0] numVirtInterfaces 0
par ClusteringNetwork.host[0] fcsMode "\"declared\""
attr enum declared,computed
par ClusteringNetwork.host[0] hasIpv4 true
par ClusteringNetwork.host[0] hasIpv6 false
par ClusteringNetwork.host[0] hasGn false
par ClusteringNetwork.host[0] forwarding true
par ClusteringNetwork.host[0] multicastForwarding false
par ClusteringNetwork.host[0] hasUdp true
par ClusteringNetwork.host[0] hasTcp true
par ClusteringNetwork.host[0] hasSctp false
par ClusteringNetwork.host[0] numApps 1
par ClusteringNetwork.host[1].radioIn[0].channel typename "\"ned.IdealChannel\""
par ClusteringNetwork.host[1].mobility typename "\"inet.mobility.single.RandomWaypointMobility\""
par ClusteringNetwork.host[1].mobility subjectModule "\"^\""
par ClusteringNetwork.host[1].mobility coordinateSystemModule "\"\""
par ClusteringNetwork.host[1].mobility displayStringTextFormat "\"p: %p\\nv: %v\""
attr mutable ""
par ClusteringNetwork.host[1].mobility updateDisplayString true
par ClusteringNetwork.host[1].mobility constraintAreaMinX 0m
attr unit m
par ClusteringNetwork.host[1].mobility constraintAreaMinY 0m
attr unit m
par ClusteringNetwork.host[1].mobility constraintAreaMinZ 0m
attr unit m
par ClusteringNetwork.host[1].mobility constraintAreaMaxX 1000m
attr unit m
par ClusteringNetwork.host[1].mobility constraintAreaMaxY 1000m
attr unit m
par ClusteringNetwork.host[1].mobility constraintAreaMaxZ 0m
attr unit m
par ClusteringNetwork.host[1].mobility updateInterval 0.1s
attr unit s
par ClusteringNetwork.host[1].mobility faceForward true
par ClusteringNetwork.host[1].mobility initialX 25.9262m
attr unit m
par ClusteringNetwork.host[1].mobility initialY 931.541m
attr unit m
par ClusteringNetwork.host[1].mobility initialZ 0m
attr unit m
par ClusteringNetwork.host[1].mobility initFromDisplayString false
par ClusteringNetwork.host[1].mobility speed "uniform(5kmph, 15kmph)"
attr unit mps
par ClusteringNetwork.host[1].mobility waitTime 1s
attr unit s
par ClusteringNetwork.host[1].interfaceTable typename "\"inet.networklayer.common.InterfaceTable\""
par ClusteringNetwork.host[1].interfaceTable displayAddresses false
par ClusteringNetwork.host[1].cb typename "\"inet.common.MessageDispatcher\""
par ClusteringNetwork.host[1].cb displayStringTextFormat "\"processed %p pk (%l)\""
par ClusteringNetwork.host[1].cb forwardServiceRegistration true
par ClusteringNetwork.host[1].cb forwardProtocolRegistration true
par ClusteringNetwork.host[1].bl typename "\"inet.common.MessageDispatcher\""
par ClusteringNetwork.host[1].bl displayStringTextFormat "\"processed %p pk (%l)\""
par ClusteringNetwork.host[1].bl forwardServiceRegistration true
par ClusteringNetwork.host[1].bl forwardProtocolRegistration true
par ClusteringNetwork.host[1].li typename "\"inet.common.MessageDispatcher\""
par ClusteringNetwork.host[1].li displayStringTextFormat "\"processed %p pk (%l)\""
par ClusteringNetwork.host[1].li forwardServiceRegistration true
par ClusteringNetwork.host[1].li forwardProtocolRegistration true
par ClusteringNetwork.host[1].lo[0].upperLayerIn.channel typename "\"ned.IdealChannel\""
par ClusteringNetwork.host[1].lo[0].lo.upperLayerOut.channel typename "\"ned.IdealChannel\""
par ClusteringNetwork.host[1].lo[0].lo typename "\"inet.linklayer.loopback.Loopback\""
par ClusteringNetwork.host[1].lo[0].lo interfaceTableModule "\"ClusteringNetwork.host[1].interfaceTable\""
par ClusteringNetwork.host[1].lo[0].lo mtu 4470B
attr unit B
scalar ClusteringNetwork.host[1].lo[0].lo rcvdPkFromHl:count 176
attr interpolationmode none
attr recordingmode count
attr source packetReceivedFromUpper
attr title "packets received from higher layer, count"
scalar ClusteringNetwork.host[1].lo[0].lo rcvdPkFromHl:sum(packetBytes) 5104
attr interpolationmode none
attr recordingmode sum(packetBytes)
attr source packetReceivedFromUpper
attr title "packets received from higher layer, sum(packetBytes)"
scalar ClusteringNetwork.host[1].lo[0].lo passedUpPk:count 176
attr interpolationmode none
attr recordingmode count
attr source packetSentToUpper
attr title "packets passed to higher layer, count"
scalar ClusteringNetwork.host[1].lo[0].lo passedUpPk:sum(packetBytes) 5104
attr interpolationmode none
attr recordingmode sum(packetBytes)
attr source packetSentToUpper
attr title "packets passed to higher layer, sum(packetBytes)"
par ClusteringNetwork.host[1].lo[0] typename "\"inet.linklayer.loopback.LoopbackInterface\""
par ClusteringNetwork.host[1].lo[0] displayStringTextFormat "\"%a (%i)\\n%m\""
par ClusteringNetwork.host[1].lo[0] recordPcap false
par ClusteringNetwork.host[1].lo[0] numPcapRecorders 0
par ClusteringNetwork.host[1].lo[0] interfaceTableModule "\"ClusteringNetwork.host[1].interfaceTable\""
scalar ClusteringNetwork.host[1].lo[0] packetDropInterfaceDown:count 0
attr interpolationmode none
attr recordingmode count
attr source packetDropReasonIsInterfaceDown(packetDropped)
attr title "packet drops: interface down, count"
scalar ClusteringNetwork.host[1].lo[0] packetDropInterfaceDown:sum(packetBytes) 0
attr interpolationmode none
attr recordingmode sum(packetBytes)
attr source packetDropReasonIsInterfaceDown(packetDropped)
attr title "packet drops: interface down, sum(packetBytes)"
scalar ClusteringNetwork.host[1].lo[0] packetDropNoCarrier:count 0
attr interpolationmode none
attr recordingmode count
attr source packetDropReasonIsNoCarrier(packetDropped)
attr title "packet drops: no carrier, count"
scalar ClusteringNetwork.host[1].lo[0] packetDropNoCarrier:sum(packetBytes) 0
attr interpolationmode none
attr recordingmode sum(packetBytes)
attr source packetDropReasonIsNoCarrier(packetDropped)
attr title "packet drops: no carrier, sum(packetBytes)"
par ClusteringNetwork.host[1].wlan[0].upperLayerIn.channel typename "\"ned.IdealChannel\""
par ClusteringNetwork.host[1].wlan[0].radioIn.channel typename "\"ned.IdealChannel\""
par ClusteringNetwork.host[1].wlan[0].mac.upperLayerOut.channel typename "\"ned.IdealChannel\""
par ClusteringNetwork.host[1].wlan[0].queue typename "\"inet.queueing.queue.DropTailQueue\""
par ClusteringNetwork.host[1].wlan[0].queue displayStringTextFormat "\"contains %p pk (%l) pushed %u\\npulled %o removed %r dropped %d\""
par ClusteringNetwork.host[1].wlan[0].queue packetCapacity 100
par ClusteringNetwork.host[1].wlan[0].queue dataCapacity -1b
attr unit b
par ClusteringNetwork.host[1].wlan[0].queue dropperClass "\"inet::queueing::PacketAtCollectionEndDropper\""
par ClusteringNetwork.host[1].wlan[0].queue comparatorClass "\"\""
par ClusteringNetwork.host[1].wlan[0].queue bufferModule "\"\""
scalar ClusteringNetwork.host[1].wlan[0].queue queueLength:last 0
attr autoWarmupFilter false
attr interpolationmode sample-hold
attr recordingmode last
attr source "warmup(atomic(constant0(packetPushEnded) + count(packetPushStarted) - count(packetPulled) - count(packetRemoved) - count(packetDropped)))"
attr title "queue length, last"
attr unit pk
scalar ClusteringNetwork.host[1].wlan[0].queue queueLength:max 2
attr autoWarmupFilter false
attr interpolationmode sample-hold
attr recordingmode max
attr source "warmup(atomic(constant0(packetPushEnded) + count(packetPushStarted) - count(packetPulled) - count(packetRemoved) - count(packetDropped)))"
attr title "queue length, max"
attr unit pk
scalar ClusteringNetwork.host[1].wlan[0].queue queueLength:timeavg 0.0013529897700722
attr autoWarmupFilter false
attr interpolationmode sample-hold
attr recordingmode timeavg
attr source "warmup(atomic(constant0(packetPushEnded) + count(packetPushStarted) - count(packetPulled) - count(packetRemoved) - count(packetDropped)))"
attr title "queue length, timeavg"
attr unit pk
scalar ClusteringNetwork.host[1].wlan[0].queue queueBitLength:last 0
attr autoWarmupFilter false
attr interpolationmode sample-hold
attr recordingmode last
attr source "warmup(atomic(constant0(packetPushEnded) + sum(packetLength(packetPushStarted)) - sum(packetLength(packetPulled)) - sum(packetLength(packetRemoved)) - sum(packetLength(packetDropped))))"
attr title "queue bit length, last"
attr unit b
scalar ClusteringNetwork.host[1].wlan[0].queue queueBitLength:max 1256
attr autoWarmupFilter false
attr interpolationmode sample-hold
attr recordingmode max
attr source "warmup(atomic(constant0(packetPushEnded) + sum(packetLength(packetPushStarted)) - sum(packetLength(packetPulled)) - sum(packetLength(packetRemoved)) - sum(packetLength(packetDropped))))"
attr title "queue bit length, max"
attr unit b
scalar ClusteringNetwork.host[1].wlan[0].queue queueBitLength:timeavg 0.73879232954036
attr autoWarmupFilter false
attr interpolationmode sample-hold
attr recordingmode timeavg
attr source "warmup(atomic(constant0(packetPushEnded) + sum(packetLength(packetPushStarted)) - sum(packetLength(packetPulled)) - sum(packetLength(packetRemoved)) - sum(packetLength(packetDropped))))"
attr title "queue bit length, timeavg"
attr unit b
statistic ClusteringNetwork.host[1].wlan[0].queue queueingTime:histogram
field count 342
field mean 0.00071209987898538
field stddev 0.0076993762069864
field min 0
field max 0.096567887019
field sum 0.243538158613
field sqrsum 0.020388037839334
attr interpolationmode none
attr recordingmode histogram
attr source queueingTime(packetPulled)
attr title "queueing times"
attr unit s
bin	-inf	0
bin	-0.5	0
bin	-0.48	0
bin	-0.46	0
bin	-0.44	0
bin	-0.42	0
bin	-0.4	0
bin	-0.38	0
bin	-0.36	0
bin	-0.34	0
bin	-0.32	0
bin	-0.3	0
bin	-0.28	0
bin	-0.26	0
bin	-0.24	0
bin	-0.22	0
bin	-0.2	0
bin	-0.18	0
bin	-0.16	0
bin	-0.14	0
bin	-0.12	0
bin	-0.1	0
bin	-0.08	0
bin	-0.06	0
bin	-0.04	0
bin	-0.02	0
bin	0	339
bin	0.02	0
bin	0.04	0
bin	0.06	1
bin	0.08	2
bin	0.1	0
bin	0.12	0
bin	0.14	0
bin	0.16	0
bin	0.18	0
bin	0.2	0
bin	0.22	0
bin	0.24	0
bin	0.26	0
bin	0.28	0
bin	0.3	0
bin	0.32	0
bin	0.34	0
bin	0.36	0
bin	0.38	0
bin	0.4	0
bin	0.42	0
bin	0.44	0
bin	0.46	0
bin	0.48	0
bin	0.5	0
scalar ClusteringNetwork.host[1].wlan[0].queue outgoingPackets:count 342
attr recordingmode count
attr source packetPulled
attr title "outgoing packets, count"
attr unit pk
scalar ClusteringNetwork.host[1].wlan[0].queue outgoingPacketLengths:sum 206816
attr interpolationmode none
attr recordingmode sum
attr source packetLength(packetPulled)
attr title "outgoing packet lengths, sum"
attr unit b
statistic ClusteringNetwork.host[1].wlan[0].queue outgoingPacketLengths:histogram
field count 342
field mean 604.72514619883
field stddev 396.01313762584
field min 224
field max 1024
field sum 206816
field sqrsum 178544640
attr interpolationmode none
attr recordingmode histogram
attr source packetLength(packetPulled)
attr title "outgoing packet lengths"
attr unit b
bin	-inf	0
bin	20	0
bin	40	0
bin	60	0
bin	80	0
bin	100	0
bin	120	0
bin	140	0
bin	160	0
bin	180	0
bin	200	0
bin	220	181
bin	240	0
bin	260	0
bin	280	0
bin	300	0
bin	320	0
bin	340	0
bin	360	0
bin	380	0
bin	400	0
bin	420	0
bin	440	0
bin	460	0
bin	480	0
bin	500	0
bin	520	0
bin	540	0
bin	560	0
bin	580	0
bin	600	0
bin	620	0
bin	640	0
bin	660	0
bin	680	0
bin	700	0
bin	720	0
bin	740	0
bin	760	0
bin	780	0
bin	800	0
bin	820	0
bin	840	0
bin	860	0
bin	880	0
bin	900	0
bin	920	0
bin	940	0
bin	960	0
bin	980	0
bin	1000	0
bin	1020	161
bin	1040	0
bin	1060	0
bin	1080	0
bin	1100	0
bin	1120	0
bin	1140	0
bin	1160	0
bin	1180	0
bin	1200	0
bin	1220	0
bin	1240	0
statistic ClusteringNetwork.host[1].wlan[0].queue flowQueueingTime:histogram
field count 0
field mean -nan
field stddev nan
field min nan
field max nan
field sum 0
field sqrsum 0
attr interpolationmode none
attr recordingmode histogram
attr source queueingTime(demuxFlow(packetPulled))
attr title "flow queueing times"
attr unit s
bin	-inf	0
bin	0	0
bin	1	0
scalar ClusteringNetwork.host[1].wlan[0].queue incomingPackets:count 342
attr recordingmode count
attr source packetPushStarted
attr title "incoming packets, count"
attr unit pk
scalar ClusteringNetwork.host[1].wlan[0].queue incomingPacketLengths:sum 206816
attr interpolationmode none
attr recordingmode sum
attr source packetLength(packetPushStarted)
attr title "incoming packet lengths, sum"
attr unit b
statistic ClusteringNetwork.host[1].wlan[0].queue incomingPacketLengths:histogram
field count 342
field mean 604.72514619883
field stddev 396.01313762584
field min 224
field max 1024
field sum 206816
field sqrsum 178544640
attr interpolationmode none
attr recordingmode histogram
attr source packetLength(packetPushStarted)
attr title "incoming packet lengths"
attr unit b
bin	-inf	0
bin	20	0
bin	40	0
bin	60	0
bin	80	0
bin	100	0
bin	120	0
bin	140	0
bin	160	0
bin	180	0
bin	200	0
bin	220	181
bin	240	0
bin	260	0
bin	280	0
bin	300	0
bin	320	0
bin	340	0
bin	360	0
bin	380	0
bin	400	0
bin	420	0
bin	440	0
bin	460	0
bin	480	0
bin	500	0
bin	520	0
bin	540	0
bin	560	0
bin	580	0
bin	600	0
bin	620	0
bin	640	0
bin	660	0
bin	680	0
bin	700	0
bin	720	0
bin	740	0
bin	760	0
bin	780	0
bin	800	0
bin	820	0
bin	840	0
bin	860	0
bin	880	0
bin	900	0
bin	920	0
bin	940	0
bin	960	0
bin	980	0
bin	1000	0
bin	1020	161
bin	1040	0
bin	1060	0
bin	1080	0
bin	1100	0
bin	1120	0
bin	1140	0
bin	1160	0
bin	1180	0
bin	1200	0
bin	1220	0
bin	1240	0
scalar ClusteringNetwork.host[1].wlan[0].queue droppedPacketsQueueOverflow:count 0
attr interpolationmode none
attr recordingmode count
attr source packetDropReasonIsQueueOverflow(packetDropped)
attr title "dropped packets: queue overflow, count"
attr unit pk
scalar ClusteringNetwork.host[1].wlan[0].queue droppedPacketLengthsQueueOverflow:sum 0
attr interpolationmode none
attr recordingmode sum
attr source packetLength(packetDropReasonIsQueueOverflow(packetDropped))
attr title "dropped packet lengths: queue overflow, sum"
attr unit b
par ClusteringNetwork.host[1].wlan[0].mac typename "\"inet.linklayer.acking.AckingMac\""
par ClusteringNetwork.host[1].wlan[0].mac interfaceTableModule "\"ClusteringNetwork.host[1].interfaceTable\""
par ClusteringNetwork.host[1].wlan[0].mac address "\"auto\""
attr mutable ""
par ClusteringNetwork.host[1].wlan[0].mac bitrate 6e+06bps
attr unit bps
par ClusteringNetwork.host[1].wlan[0].mac mtu 4470B
attr unit B
par ClusteringNetwork.host[1].wlan[0].mac headerLength 16B
attr unit B
par ClusteringNetwork.host[1].wlan[0].mac promiscuous false
par ClusteringNetwork.host[1].wlan[0].mac fullDuplex true
par ClusteringNetwork.host[1].wlan[0].mac useAck true
par ClusteringNetwork.host[1].wlan[0].mac ackTimeout 0.1s
attr unit s
scalar ClusteringNetwork.host[1].wlan[0].mac rcvdPkFromLl:count 597
attr interpolationmode none
attr recordingmode count
attr source packetReceivedFromLower
attr title "packets received from lower layer, count"
scalar ClusteringNetwork.host[1].wlan[0].mac rcvdPkFromLl:sum(packetBytes) 63387
attr interpolationmode none
attr recordingmode sum(packetBytes)
attr source packetReceivedFromLower
attr title "packets received from lower layer, sum(packetBytes)"
scalar ClusteringNetwork.host[1].wlan[0].mac sentDownPk:count 342
attr interpolationmode none
attr recordingmode count
attr source packetSentToLower
attr title "packets sent to lower layer, count"
scalar ClusteringNetwork.host[1].wlan[0].mac sentDownPk:sum(packetBytes) 31324
attr interpolationmode none
attr recordingmode sum(packetBytes)
attr source packetSentToLower
attr title "packets sent to lower layer, sum(packetBytes)"
scalar ClusteringNetwork.host[1].wlan[0].mac rcvdPkFromHl:count 342
attr interpolationmode none
attr recordingmode count
attr source packetReceivedFromUpper
attr title "packets received from higher layer, count"
scalar ClusteringNetwork.host[1].wlan[0].mac rcvdPkFromHl:sum(packetBytes) 25852
attr interpolationmode none
attr recordingmode sum(packetBytes)
attr source packetReceivedFromUpper
attr title "packets received from higher layer, sum(packetBytes)"
scalar ClusteringNetwork.host[1].wlan[0].mac passedUpPk:count 411
attr interpolationmode none
attr recordingmode count
attr source packetSentToUpper
attr title "packets passed to higher layer, count"
scalar ClusteringNetwork.host[1].wlan[0].mac passedUpPk:sum(packetBytes) 30525
attr interpolationmode none
attr recordingmode sum(packetBytes)
attr source packetSentToUpper
attr title "packets passed to higher layer, sum(packetBytes)"
scalar ClusteringNetwork.host[1].wlan[0].mac packetDropIncorrectlyReceived:count 3
attr interpolationmode none
attr recordingmode count
attr source packetDropReasonIsIncorrectlyReceived(packetDropped)
attr title "packet drop: incorrectly received, count"
scalar ClusteringNetwork.host[1].wlan[0].mac packetDropIncorrectlyReceived:sum(packetBytes) 234
attr interpolationmode none
attr recordingmode sum(packetBytes)
attr source packetDropReasonIsIncorrectlyReceived(packetDropped)
attr title "packet drop: incorrectly received, sum(packetBytes)"
scalar ClusteringNetwork.host[1].wlan[0].mac packetDropInterfaceDown:count 0
attr interpolationmode none
attr recordingmode count
attr source packetDropReasonIsInterfaceDown(packetDropped)
attr title "packet drop: interface down, count"
scalar ClusteringNetwork.host[1].wlan[0].mac packetDropInterfaceDown:sum(packetBytes) 0
attr interpolationmode none
attr recordingmode sum(packetBytes)
attr source packetDropReasonIsInterfaceDown(packetDropped)
attr title "packet drop: interface down, sum(packetBytes)"
scalar ClusteringNetwork.host[1].wlan[0].mac packetDropNotAddressedToUs:count 183
attr interpolationmode none
attr recordingmode count
attr source packetDropReasonIsNotAddressedToUs(packetDropped)
attr title "packet drop: not addressed to us, count"
scalar ClusteringNetwork.host[1].wlan[0].mac packetDropNotAddressedToUs:sum(packetBytes) 26052
attr interpolationmode none
attr recordingmode sum(packetBytes)
attr source packetDropReasonIsNotAddressedToUs(packetDropped)
attr title "packet drop: not addressed to us, sum(packetBytes)"
scalar ClusteringNetwork.host[1].wlan[0].mac linkBroken:count 9
attr interpolationmode none
attr recordingmode count
attr source linkBroken
attr title "link break, count"
par ClusteringNetwork.host[1].wlan[0].radio.antenna typename "\"inet.physicallayer.wireless.common.antenna.IsotropicAntenna\""
par ClusteringNetwork.host[1].wlan[0].radio.antenna mobilityModule "\"^.^.^.mobility\""
par ClusteringNetwork.host[1].wlan[0].radio.antenna numAntennas 1
par ClusteringNetwork.host[1].wlan[0].radio.transmitter typename "\"inet.physicallayer.wireless.unitdisk.UnitDiskTransmitter\""
par ClusteringNetwork.host[1].wlan[0].radio.transmitter preambleDuration 0s
attr unit s
par ClusteringNetwork.host[1].wlan[0].radio.transmitter headerLength 96b
attr unit b
par ClusteringNetwork.host[1].wlan[0].radio.transmitter bitrate 6e+06bps
attr unit bps
par ClusteringNetwork.host[1].wlan[0].radio.transmitter communicationRange 250m
attr unit m
par ClusteringNetwork.host[1].wlan[0].radio.transmitter interferenceRange 250m
attr unit m
par ClusteringNetwork.host[1].wlan[0].radio.transmitter detectionRange 250m
attr unit m
par ClusteringNetwork.host[1].wlan[0].radio.receiver typename "\"inet.physicallayer.wireless.unitdisk.UnitDiskReceiver\""
par ClusteringNetwork.host[1].wlan[0].radio.receiver ignoreInterference false
par ClusteringNetwork.host[1].wlan[0].radio typename "\"inet.physicallayer.wireless.unitdisk.UnitDiskRadio\""
par ClusteringNetwork.host[1].wlan[0].radio radioMediumModule "\"radioMedium\""
par ClusteringNetwork.host[1].wlan[0].radio energySourceModule "\"\""
par ClusteringNetwork.host[1].wlan[0].radio initialRadioMode "\"off\""
attr enum off,sleep,receiver,transmitter,transceiver
par ClusteringNetwork.host[1].wlan[0].radio switchingTimes "\"ms 0 0 0 0 0 0 0 0 0 0 0 0 0 0 0 0 0 0 0 0 0 0 0 0 0\""
par ClusteringNetwork.host[1].wlan[0].radio sendRawBytes false
par ClusteringNetwork.host[1].wlan[0].radio separateTransmissionParts false
par ClusteringNetwork.host[1].wlan[0].radio separateReceptionParts false
par ClusteringNetwork.host[1].wlan[0].radio displayCommunicationRange false
par ClusteringNetwork.host[1].wlan[0].radio displayInterferenceRange false
scalar ClusteringNetwork.host[1].wlan[0].radio radioMode:count 3
attr interpolationmode sample-hold
attr recordingmode count
attr source radioModeChanged
attr title "Radio mode, count"
scalar ClusteringNetwork.host[1].wlan[0].radio receptionState:count 1199
attr interpolationmode sample-hold
attr recordingmode count
attr source receptionStateChanged
attr title "Radio reception state, count"
scalar ClusteringNetwork.host[1].wlan[0].radio transmissionState:count 685
attr interpolationmode sample-hold
attr recordingmode count
attr source transmissionStateChanged
attr title "Radio transmission state, count"
statistic ClusteringNetwork.host[1].wlan[0].radio minSnir:histogram
field count 0
field mean -nan
field stddev nan
field min nan
field max nan
field sum 0
field sqrsum 0
attr recordingmode histogram
attr source minimumSnir(packetSentToUpper)
attr title "Min SNIR"
bin	-inf	0
bin	0	0
bin	1	0
statistic ClusteringNetwork.host[1].wlan[0].radio packetErrorRate:histogram
field count 597
field mean 0.0050251256281407
field stddev 0.070769080751854
field min 0
field max 1
field sum 3
field sqrsum 3
attr recordingmode histogram
attr source packetErrorRate(packetSentToUpper)
attr title "Packet error rate"
bin	-inf	0
bin	-0.5	0
bin	-0.48	0
bin	-0.46	0
bin	-0.44	0
bin	-0.42	0
bin	-0.4	0
bin	-0.38	0
bin	-0.36	0
bin	-0.34	0
bin	-0.32	0
bin	-0.3	0
bin	-0.28	0
bin	-0.26	0
bin	-0.24	0
bin	-0.22	0
bin	-0.2	0
bin	-0.18	0
bin	-0.16	0
bin	-0.14	0
bin	-0.12	0
bin	-0.1	0
bin	-0.08	0
bin	-0.06	0
bin	-0.04	0
bin	-0.02	0
bin	0	594
bin	0.02	0
bin	0.04	0
bin	0.06	0
bin	0.08	0
bin	0.1	0
bin	0.12	0
bin	0.14	0
bin	0.16	0
bin	0.18	0
bin	0.2	0
bin	0.22	0
bin	0.24	0
bin	0.26	0
bin	0.28	0
bin	0.3	0
bin	0.32	0
bin	0.34	0
bin	0.36	0
bin	0.38	0
bin	0.4	0
bin	0.42	0
bin	0.44	0
bin	0.46	0
bin	0.48	0
bin	0.5	0
bin	0.52	0
bin	0.54	0
bin	0.56	0
bin	0.58	0
bin	0.6	0
bin	0.62	0
bin	0.64	0
bin	0.66	0
bin	0.68	0
bin	0.7	0
bin	0.72	0
bin	0.74	0
bin	0.76	0
bin	0.78	0
bin	0.8	0
bin	0.82	0
bin	0.84	0
bin	0.86	0
bin	0.88	0
bin	0.9	0
bin	0.92	0
bin	0.94	0
bin	0.96	0
bin	0.98	0
bin	1	3
bin	1.02	0
statistic ClusteringNetwork.host[1].wlan[0].radio bitErrorRate:histogram
field count 597
field mean 0.0050251256281407
field stddev 0.070769080751854
field min 0
field max 1
field sum 3
field sqrsum 3
attr recordingmode histogram
attr source bitErrorRate(packetSentToUpper)
attr title "Bit error rate"
bin	-inf	0
bin	-0.5	0
bin	-0.48	0
bin	-0.46	0
bin	-0.44	0
bin	-0.42	0
bin	-0.4	0
bin	-0.38	0
bin	-0.36	0
bin	-0.34	0
bin	-0.32	0
bin	-0.3	0
bin	-0.28	0
bin	-0.26	0
bin	-0.24	0
bin	-0.22	0
bin	-0.2	0
bin	-0.18	0
bin	-0.16	0
bin	-0.14	0
bin	-0.12	0
bin	-0.1	0
bin	-0.08	0
bin	-0.06	0
bin	-0.04	0
bin	-0.02	0
bin	0	594
bin	0.02	0
bin	0.04	0
bin	0.06	0
bin	0.08	0
bin	0.1	0
bin	0.12	0
bin	0.14	0
bin	0.16	0
bin	0.18	0
bin	0.2	0
bin	0.22	0
bin	0.24	0
bin	0.26	0
bin	0.28	0
bin	0.3	0
bin	0.32	0
bin	0.34	0
bin	0.36	0
bin	0.38	0
bin	0.4	0
bin	0.42	0
bin	0.44	0
bin	0.46	0
bin	0.48	0
bin	0.5	0
bin	0.52	0
bin	0.54	0
bin	0.56	0
bin	0.58	0
bin	0.6	0
bin	0.62	0
bin	0.64	0
bin	0.66	0
bin	0.68	0
bin	0.7	0
bin	0.72	0
bin	0.74	0
bin	0.76	0
bin	0.78	0
bin	0.8	0
bin	0.82	0
bin	0.84	0
bin	0.86	0
bin	0.88	0
bin	0.9	0
bin	0.92	0
bin	0.94	0
bin	0.96	0
bin	0.98	0
bin	1	3
bin	1.02	0
statistic ClusteringNetwork.host[1].wlan[0].radio symbolErrorRate:histogram
field count 597
field mean 0.0050251256281407
field stddev 0.070769080751854
field min 0
field max 1
field sum 3
field sqrsum 3
attr recordingmode histogram
attr source symbolErrorRate(packetSentToUpper)
attr title "Symbol error rate"
bin	-inf	0
bin	-0.5	0
bin	-0.48	0
bin	-0.46	0
bin	-0.44	0
bin	-0.42	0
bin	-0.4	0
bin	-0.38	0
bin	-0.36	0
bin	-0.34	0
bin	-0.32	0
bin	-0.3	0
bin	-0.28	0
bin	-0.26	0
bin	-0.24	0
bin	-0.22	0
bin	-0.2	0
bin	-0.18	0
bin	-0.16	0
bin	-0.14	0
bin	-0.12	0
bin	-0.1	0
bin	-0.08	0
bin	-0.06	0
bin	-0.04	0
bin	-0.02	0
bin	0	594
bin	0.02	0
bin	0.04	0
bin	0.06	0
bin	0.08	0
bin	0.1	0
bin	0.12	0
bin	0.14	0
bin	0.16	0
bin	0.18	0
bin	0.2	0
bin	0.22	0
bin	0.24	0
bin	0.26	0
bin	0.28	0
bin	0.3	0
bin	0.32	0
bin	0.34	0
bin	0.36	0
bin	0.38	0
bin	0.4	0
bin	0.42	0
bin	0.44	0
bin	0.46	0
bin	0.48	0
bin	0.5	0
bin	0.52	0
bin	0.54	0
bin	0.56	0
bin	0.58	0
bin	0.6	0
bin	0.62	0
bin	0.64	0
bin	0.66	0
bin	0.68	0
bin	0.7	0
bin	0.72	0
bin	0.74	0
bin	0.76	0
bin	0.78	0
bin	0.8	0
bin	0.82	0
bin	0.84	0
bin	0.86	0
bin	0.88	0
bin	0.9	0
bin	0.92	0
bin	0.94	0
bin	0.96	0
bin	0.98	0
bin	1	3
bin	1.02	0
par ClusteringNetwork.host[1].wlan[0] typename "\"inet.linklayer.acking.AckingWirelessInterface\""
par ClusteringNetwork.host[1].wlan[0] displayStringTextFormat "\"%a (%i)\\n%m\""
par ClusteringNetwork.host[1].wlan[0] recordPcap false
par ClusteringNetwork.host[1].wlan[0] numPcapRecorders 0
par ClusteringNetwork.host[1].wlan[0] interfaceTableModule "\"ClusteringNetwork.host[1].interfaceTable\""
par ClusteringNetwork.host[1].wlan[0] energySourceModule "\"\""
par ClusteringNetwork.host[1].wlan[0] bitrate 6e+06bps
attr unit bps
scalar ClusteringNetwork.host[1].wlan[0] packetDropInterfaceDown:count 0
attr interpolationmode none
attr recordingmode count
attr source packetDropReasonIsInterfaceDown(packetDropped)
attr title "packet drops: interface down, count"
scalar ClusteringNetwork.host[1].wlan[0] packetDropInterfaceDown:sum(packetBytes) 0
attr interpolationmode none
attr recordingmode sum(packetBytes)
attr source packetDropReasonIsInterfaceDown(packetDropped)
attr title "packet drops: interface down, sum(packetBytes)"
scalar ClusteringNetwork.host[1].wlan[0] packetDropNoCarrier:count 0
attr interpolationmode none
attr recordingmode count
attr source packetDropReasonIsNoCarrier(packetDropped)
attr title "packet drops: no carrier, count"
scalar ClusteringNetwork.host[1].wlan[0] packetDropNoCarrier:sum(packetBytes) 0
attr interpolationmode none
attr recordingmode sum(packetBytes)
attr source packetDropReasonIsNoCarrier(packetDropped)
attr title "packet drops: no carrier, sum(packetBytes)"
par ClusteringNetwork.host[1].ipv4.transportIn.channel typename "\"ned.IdealChannel\""
par ClusteringNetwork.host[1].ipv4.up.out[0].channel typename "\"ned.IdealChannel\""
par ClusteringNetwork.host[1].ipv4.lp.out[2].channel typename "\"ned.IdealChannel\""
par ClusteringNetwork.host[1].ipv4.ifIn.channel typename "\"ned.IdealChannel\""
par ClusteringNetwork.host[1].ipv4.configurator typename "\"inet.networklayer.configurator.ipv4.Ipv4NodeConfigurator\""
par ClusteringNetwork.host[1].ipv4.configurator interfaceTableModule "\"ClusteringNetwork.host[1].interfaceTable\""
par ClusteringNetwork.host[1].ipv4.configurator routingTableModule "\"ClusteringNetwork.host[1].ipv4.routingTable\""
par ClusteringNetwork.host[1].ipv4.configurator networkConfiguratorModule "\"configurator\""
par ClusteringNetwork.host[1].ipv4.configurator configureRoutingTable true
par ClusteringNetwork.host[1].ipv4.routingTable typename "\"inet.networklayer.ipv4.Ipv4RoutingTable\""
par ClusteringNetwork.host[1].ipv4.routingTable interfaceTableModule "\"ClusteringNetwork.host[1].interfaceTable\""
par ClusteringNetwork.host[1].ipv4.routingTable routerId "\"auto\""
par ClusteringNetwork.host[1].ipv4.routingTable netmaskRoutes "\"*\""
par ClusteringNetwork.host[1].ipv4.routingTable forwarding true
par ClusteringNetwork.host[1].ipv4.routingTable multicastForwarding false
par ClusteringNetwork.host[1].ipv4.routingTable useAdminDist false
par ClusteringNetwork.host[1].ipv4.routingTable routingFile "\"\""
par ClusteringNetwork.host[1].ipv4.natTable typename "\"inet.networklayer.ipv4.Ipv4NatTable\""
par ClusteringNetwork.host[1].ipv4.natTable networkProtocolModule "\"^.ip\""
par ClusteringNetwork.host[1].ipv4.natTable config "<config/> at content:1"
par ClusteringNetwork.host[1].ipv4.up typename "\"inet.common.MessageDispatcher\""
par ClusteringNetwork.host[1].ipv4.up displayStringTextFormat "\"processed %p pk (%l)\""
par ClusteringNetwork.host[1].ipv4.up forwardServiceRegistration true
par ClusteringNetwork.host[1].ipv4.up forwardProtocolRegistration true
par ClusteringNetwork.host[1].ipv4.igmp typename "\"inet.networklayer.ipv4.Igmpv2\""
par ClusteringNetwork.host[1].ipv4.igmp interfaceTableModule "\"ClusteringNetwork.host[1].interfaceTable\""
par ClusteringNetwork.host[1].ipv4.igmp routingTableModule "\"ClusteringNetwork.host[1].ipv4.routingTable\""
par ClusteringNetwork.host[1].ipv4.igmp crcMode "\"declared\""
attr enum declared,computed
par ClusteringNetwork.host[1].ipv4.igmp enabled true
par ClusteringNetwork.host[1].ipv4.igmp robustnessVariable 2
par ClusteringNetwork.host[1].ipv4.igmp queryInterval 125s
attr unit s
par ClusteringNetwork.host[1].ipv4.igmp queryResponseInterval 10s
attr unit s
par ClusteringNetwork.host[1].ipv4.igmp groupMembershipInterval 260s
attr unit s
par ClusteringNetwork.host[1].ipv4.igmp otherQuerierPresentInterval 255s
attr unit s
par ClusteringNetwork.host[1].ipv4.igmp startupQueryInterval 31.25s
attr unit s
par ClusteringNetwork.host[1].ipv4.igmp startupQueryCount 2
par ClusteringNetwork.host[1].ipv4.igmp lastMemberQueryInterval 1s
attr unit s
par ClusteringNetwork.host[1].ipv4.igmp lastMemberQueryCount 2
par ClusteringNetwork.host[1].ipv4.igmp unsolicitedReportInterval 10s
attr unit s
par ClusteringNetwork.host[1].ipv4.icmp typename "\"inet.networklayer.ipv4.Icmp\""
par ClusteringNetwork.host[1].ipv4.icmp interfaceTableModule "\"ClusteringNetwork.host[1].interfaceTable\""
par ClusteringNetwork.host[1].ipv4.icmp routingTableModule "\"ClusteringNetwork.host[1].ipv4.routingTable\""
par ClusteringNetwork.host[1].ipv4.icmp crcMode "\"declared\""
attr enum declared,computed
attr mutable ""
par ClusteringNetwork.host[1].ipv4.icmp quoteLength 8B
attr mutable ""
attr unit B
par ClusteringNetwork.host[1].ipv4.mp typename "\"inet.common.MessageDispatcher\""
par ClusteringNetwork.host[1].ipv4.mp displayStringTextFormat "\"processed %p pk (%l)\""
par ClusteringNetwork.host[1].ipv4.mp forwardServiceRegistration true
par ClusteringNetwork.host[1].ipv4.mp forwardProtocolRegistration true
par ClusteringNetwork.host[1].ipv4.ip typename "\"inet.networklayer.ipv4.Ipv4\""
par ClusteringNetwork.host[1].ipv4.ip interfaceTableModule "\"ClusteringNetwork.host[1].interfaceTable\""
par ClusteringNetwork.host[1].ipv4.ip routingTableModule "\"ClusteringNetwork.host[1].ipv4.routingTable\""
par ClusteringNetwork.host[1].ipv4.ip arpModule "\"ClusteringNetwork.host[1].ipv4.arp\""
par ClusteringNetwork.host[1].ipv4.ip icmpModule "\"ClusteringNetwork.host[1].ipv4.icmp\""
par ClusteringNetwork.host[1].ipv4.ip crcMode "\"declared\""
attr enum declared,computed
par ClusteringNetwork.host[1].ipv4.ip timeToLive 32
par ClusteringNetwork.host[1].ipv4.ip multicastTimeToLive 32
par ClusteringNetwork.host[1].ipv4.ip fragmentTimeout 60s
attr unit s
par ClusteringNetwork.host[1].ipv4.ip limitedBroadcast false
par ClusteringNetwork.host[1].ipv4.ip directBroadcastInterfaces "\"\""
scalar ClusteringNetwork.host[1].ipv4.ip packetDropAddressResolutionFailed:count 0
attr interpolationmode none
attr recordingmode count
attr source packetDropReasonIsAddressResolutionFailed(packetDropped)
attr title "packet drop: address resolution failed, count"
scalar ClusteringNetwork.host[1].ipv4.ip packetDropAddressResolutionFailed:sum(packetBytes) 0
attr interpolationmode none
attr recordingmode sum(packetBytes)
attr source packetDropReasonIsAddressResolutionFailed(packetDropped)
attr title "packet drop: address resolution failed, sum(packetBytes)"
scalar ClusteringNetwork.host[1].ipv4.ip packetDropHopLimitReached:count 0
attr interpolationmode none
attr recordingmode count
attr source packetDropReasonIsHopLimitReached(packetDropped)
attr title "packet drop: hop limit reached, count"
scalar ClusteringNetwork.host[1].ipv4.ip packetDropHopLimitReached:sum(packetBytes) 0
attr interpolationmode none
attr recordingmode sum(packetBytes)
attr source packetDropReasonIsHopLimitReached(packetDropped)
attr title "packet drop: hop limit reached, sum(packetBytes)"
scalar ClusteringNetwork.host[1].ipv4.ip packetDropForwardingDisabled:count 0
attr interpolationmode none
attr recordingmode count
attr source packetDropReasonIsForwardingDisabled(packetDropped)
attr title "packet drop: forwarding disabled, count"
scalar ClusteringNetwork.host[1].ipv4.ip packetDropForwardingDisabled:sum(packetBytes) 0
attr interpolationmode none
attr recordingmode sum(packetBytes)
attr source packetDropReasonIsForwardingDisabled(packetDropped)
attr title "packet drop: forwarding disabled, sum(packetBytes)"
scalar ClusteringNetwork.host[1].ipv4.ip packetDropNoInterfaceFound:count 0
attr interpolationmode none
attr recordingmode count
attr source packetDropReasonIsNoInterfaceFound(packetDropped)
attr title "packet drop: no interface found, count"
scalar ClusteringNetwork.host[1].ipv4.ip packetDropNoInterfaceFound:sum(packetBytes) 0
attr interpolationmode none
attr recordingmode sum(packetBytes)
attr source packetDropReasonIsNoInterfaceFound(packetDropped)
attr title "packet drop: no interface found, sum(packetBytes)"
scalar ClusteringNetwork.host[1].ipv4.ip packetDropNoRouteFound:count 0
attr interpolationmode none
attr recordingmode count
attr source packetDropReasonIsNoRouteFound(packetDropped)
attr title "packet drop: no route found, count"
scalar ClusteringNetwork.host[1].ipv4.ip packetDropNoRouteFound:sum(packetBytes) 0
attr interpolationmode none
attr recordingmode sum(packetBytes)
attr source packetDropReasonIsNoRouteFound(packetDropped)
attr title "packet drop: no route found, sum(packetBytes)"
scalar ClusteringNetwork.host[1].ipv4.ip packetDropUndefined:count 0
attr interpolationmode none
attr recordingmode count
attr source packetDropReasonIsUndefined(packetDropped)
attr title "packet drop: undefined, count"
scalar ClusteringNetwork.host[1].ipv4.ip packetDropUndefined:sum(packetBytes) 0
attr interpolationmode none
attr recordingmode sum(packetBytes)
attr source packetDropReasonIsUndefined(packetDropped)
attr title "packet drop: undefined, sum(packetBytes)"
par ClusteringNetwork.host[1].ipv4.arp typename "\"inet.networklayer.arp.ipv4.Arp\""
par ClusteringNetwork.host[1].ipv4.arp interfaceTableModule "\"ClusteringNetwork.host[1].interfaceTable\""
[...]
bin	0.98	0
bin	1	1
bin	1.02	0
par ClusteringNetwork.host[19].wlan[0] typename "\"inet.linklayer.acking.AckingWirelessInterface\""
par ClusteringNetwork.host[19].wlan[0] displayStringTextFormat "\"%a (%i)\\n%m\""
par ClusteringNetwork.host[19].wlan[0] recordPcap false
par ClusteringNetwork.host[19].wlan[0] numPcapRecorders 0
par ClusteringNetwork.host[19].wlan[0] interfaceTableModule "\"ClusteringNetwork.host[19].interfaceTable\""
par ClusteringNetwork.host[19].wlan[0] energySourceModule "\"\""
par ClusteringNetwork.host[19].wlan[0] bitrate 6e+06bps
attr unit bps
scalar ClusteringNetwork.host[19].wlan[0] packetDropInterfaceDown:count 0
attr interpolationmode none
attr recordingmode count
attr source packetDropReasonIsInterfaceDown(packetDropped)
attr title "packet drops: interface down, count"
scalar ClusteringNetwork.host[19].wlan[0] packetDropInterfaceDown:sum(packetBytes) 0
attr interpolationmode none
attr recordingmode sum(packetBytes)
attr source packetDropReasonIsInterfaceDown(packetDropped)
attr title "packet drops: interface down, sum(packetBytes)"
scalar ClusteringNetwork.host[19].wlan[0] packetDropNoCarrier:count 0
attr interpolationmode none
attr recordingmode count
attr source packetDropReasonIsNoCarrier(packetDropped)
attr title "packet drops: no carrier, count"
scalar ClusteringNetwork.host[19].wlan[0] packetDropNoCarrier:sum(packetBytes) 0
attr interpolationmode none
attr recordingmode sum(packetBytes)
attr source packetDropReasonIsNoCarrier(packetDropped)
attr title "packet drops: no carrier, sum(packetBytes)"
par ClusteringNetwork.host[19].ipv4.transportIn.channel typename "\"ned.IdealChannel\""
par ClusteringNetwork.host[19].ipv4.up.out[0].channel typename "\"ned.IdealChannel\""
par ClusteringNetwork.host[19].ipv4.lp.out[2].channel typename "\"ned.IdealChannel\""
par ClusteringNetwork.host[19].ipv4.ifIn.channel typename "\"ned.IdealChannel\""
par ClusteringNetwork.host[19].ipv4.configurator typename "\"inet.networklayer.configurator.ipv4.Ipv4NodeConfigurator\""
par ClusteringNetwork.host[19].ipv4.configurator interfaceTableModule "\"ClusteringNetwork.host[19].interfaceTable\""
par ClusteringNetwork.host[19].ipv4.configurator routingTableModule "\"ClusteringNetwork.host[19].ipv4.routingTable\""
par ClusteringNetwork.host[19].ipv4.configurator networkConfiguratorModule "\"configurator\""
par ClusteringNetwork.host[19].ipv4.configurator configureRoutingTable true
par ClusteringNetwork.host[19].ipv4.routingTable typename "\"inet.networklayer.ipv4.Ipv4RoutingTable\""
par ClusteringNetwork.host[19].ipv4.routingTable interfaceTableModule "\"ClusteringNetwork.host[19].interfaceTable\""
par ClusteringNetwork.host[19].ipv4.routingTable routerId "\"auto\""
par ClusteringNetwork.host[19].ipv4.routingTable netmaskRoutes "\"*\""
par ClusteringNetwork.host[19].ipv4.routingTable forwarding true
par ClusteringNetwork.host[19].ipv4.routingTable multicastForwarding false
par ClusteringNetwork.host[19].ipv4.routingTable useAdminDist false
par ClusteringNetwork.host[19].ipv4.routingTable routingFile "\"\""
par ClusteringNetwork.host[19].ipv4.natTable typename "\"inet.networklayer.ipv4.Ipv4NatTable\""
par ClusteringNetwork.host[19].ipv4.natTable networkProtocolModule "\"^.ip\""
par ClusteringNetwork.host[19].ipv4.natTable config "<config/> at content:1"
par ClusteringNetwork.host[19].ipv4.up typename "\"inet.common.MessageDispatcher\""
par ClusteringNetwork.host[19].ipv4.up displayStringTextFormat "\"processed %p pk (%l)\""
par ClusteringNetwork.host[19].ipv4.up forwardServiceRegistration true
par ClusteringNetwork.host[19].ipv4.up forwardProtocolRegistration true
par ClusteringNetwork.host[19].ipv4.igmp typename "\"inet.networklayer.ipv4.Igmpv2\""
par ClusteringNetwork.host[19].ipv4.igmp interfaceTableModule "\"ClusteringNetwork.host[19].interfaceTable\""
par ClusteringNetwork.host[19].ipv4.igmp routingTableModule "\"ClusteringNetwork.host[19].ipv4.routingTable\""
par ClusteringNetwork.host[19].ipv4.igmp crcMode "\"declared\""
attr enum declared,computed
par ClusteringNetwork.host[19].ipv4.igmp enabled true
par ClusteringNetwork.host[19].ipv4.igmp robustnessVariable 2
par ClusteringNetwork.host[19].ipv4.igmp queryInterval 125s
attr unit s
par ClusteringNetwork.host[19].ipv4.igmp queryResponseInterval 10s
attr unit s
par ClusteringNetwork.host[19].ipv4.igmp groupMembershipInterval 260s
attr unit s
par ClusteringNetwork.host[19].ipv4.igmp otherQuerierPresentInterval 255s
attr unit s
par ClusteringNetwork.host[19].ipv4.igmp startupQueryInterval 31.25s
attr unit s
par ClusteringNetwork.host[19].ipv4.igmp startupQueryCount 2
par ClusteringNetwork.host[19].ipv4.igmp lastMemberQueryInterval 1s
attr unit s
par ClusteringNetwork.host[19].ipv4.igmp lastMemberQueryCount 2
par ClusteringNetwork.host[19].ipv4.igmp unsolicitedReportInterval 10s
attr unit s
par ClusteringNetwork.host[19].ipv4.icmp typename "\"inet.networklayer.ipv4.Icmp\""
par ClusteringNetwork.host[19].ipv4.icmp interfaceTableModule "\"ClusteringNetwork.host[19].interfaceTable\""
par ClusteringNetwork.host[19].ipv4.icmp routingTableModule "\"ClusteringNetwork.host[19].ipv4.routingTable\""
par ClusteringNetwork.host[19].ipv4.icmp crcMode "\"declared\""
attr enum declared,computed
attr mutable ""
par ClusteringNetwork.host[19].ipv4.icmp quoteLength 8B
attr mutable ""
attr unit B
par ClusteringNetwork.host[19].ipv4.mp typename "\"inet.common.MessageDispatcher\""
par ClusteringNetwork.host[19].ipv4.mp displayStringTextFormat "\"processed %p pk (%l)\""
par ClusteringNetwork.host[19].ipv4.mp forwardServiceRegistration true
par ClusteringNetwork.host[19].ipv4.mp forwardProtocolRegistration true
par ClusteringNetwork.host[19].ipv4.ip typename "\"inet.networklayer.ipv4.Ipv4\""
par ClusteringNetwork.host[19].ipv4.ip interfaceTableModule "\"ClusteringNetwork.host[19].interfaceTable\""
par ClusteringNetwork.host[19].ipv4.ip routingTableModule "\"ClusteringNetwork.host[19].ipv4.routingTable\""
par ClusteringNetwork.host[19].ipv4.ip arpModule "\"ClusteringNetwork.host[19].ipv4.arp\""
par ClusteringNetwork.host[19].ipv4.ip icmpModule "\"ClusteringNetwork.host[19].ipv4.icmp\""
par ClusteringNetwork.host[19].ipv4.ip crcMode "\"declared\""
attr enum declared,computed
par ClusteringNetwork.host[19].ipv4.ip timeToLive 32
par ClusteringNetwork.host[19].ipv4.ip multicastTimeToLive 32
par ClusteringNetwork.host[19].ipv4.ip fragmentTimeout 60s
attr unit s
par ClusteringNetwork.host[19].ipv4.ip limitedBroadcast false
par ClusteringNetwork.host[19].ipv4.ip directBroadcastInterfaces "\"\""
scalar ClusteringNetwork.host[19].ipv4.ip packetDropAddressResolutionFailed:count 0
attr interpolationmode none
attr recordingmode count
attr source packetDropReasonIsAddressResolutionFailed(packetDropped)
attr title "packet drop: address resolution failed, count"
scalar ClusteringNetwork.host[19].ipv4.ip packetDropAddressResolutionFailed:sum(packetBytes) 0
attr interpolationmode none
attr recordingmode sum(packetBytes)
attr source packetDropReasonIsAddressResolutionFailed(packetDropped)
attr title "packet drop: address resolution failed, sum(packetBytes)"
scalar ClusteringNetwork.host[19].ipv4.ip packetDropHopLimitReached:count 0
attr interpolationmode none
attr recordingmode count
attr source packetDropReasonIsHopLimitReached(packetDropped)
attr title "packet drop: hop limit reached, count"
scalar ClusteringNetwork.host[19].ipv4.ip packetDropHopLimitReached:sum(packetBytes) 0
attr interpolationmode none
attr recordingmode sum(packetBytes)
attr source packetDropReasonIsHopLimitReached(packetDropped)
attr title "packet drop: hop limit reached, sum(packetBytes)"
scalar ClusteringNetwork.host[19].ipv4.ip packetDropForwardingDisabled:count 0
attr interpolationmode none
attr recordingmode count
attr source packetDropReasonIsForwardingDisabled(packetDropped)
attr title "packet drop: forwarding disabled, count"
scalar ClusteringNetwork.host[19].ipv4.ip packetDropForwardingDisabled:sum(packetBytes) 0
attr interpolationmode none
attr recordingmode sum(packetBytes)
attr source packetDropReasonIsForwardingDisabled(packetDropped)
attr title "packet drop: forwarding disabled, sum(packetBytes)"
scalar ClusteringNetwork.host[19].ipv4.ip packetDropNoInterfaceFound:count 0
attr interpolationmode none
attr recordingmode count
attr source packetDropReasonIsNoInterfaceFound(packetDropped)
attr title "packet drop: no interface found, count"
scalar ClusteringNetwork.host[19].ipv4.ip packetDropNoInterfaceFound:sum(packetBytes) 0
attr interpolationmode none
attr recordingmode sum(packetBytes)
attr source packetDropReasonIsNoInterfaceFound(packetDropped)
attr title "packet drop: no interface found, sum(packetBytes)"
scalar ClusteringNetwork.host[19].ipv4.ip packetDropNoRouteFound:count 0
attr interpolationmode none
attr recordingmode count
attr source packetDropReasonIsNoRouteFound(packetDropped)
attr title "packet drop: no route found, count"
scalar ClusteringNetwork.host[19].ipv4.ip packetDropNoRouteFound:sum(packetBytes) 0
attr interpolationmode none
attr recordingmode sum(packetBytes)
attr source packetDropReasonIsNoRouteFound(packetDropped)
attr title "packet drop: no route found, sum(packetBytes)"
scalar ClusteringNetwork.host[19].ipv4.ip packetDropUndefined:count 0
attr interpolationmode none
attr recordingmode count
attr source packetDropReasonIsUndefined(packetDropped)
attr title "packet drop: undefined, count"
scalar ClusteringNetwork.host[19].ipv4.ip packetDropUndefined:sum(packetBytes) 0
attr interpolationmode none
attr recordingmode sum(packetBytes)
attr source packetDropReasonIsUndefined(packetDropped)
attr title "packet drop: undefined, sum(packetBytes)"
par ClusteringNetwork.host[19].ipv4.arp typename "\"inet.networklayer.arp.ipv4.Arp\""
par ClusteringNetwork.host[19].ipv4.arp interfaceTableModule "\"ClusteringNetwork.host[19].interfaceTable\""
par ClusteringNetwork.host[19].ipv4.arp routingTableModule "\"ClusteringNetwork.host[19].ipv4.routingTable\""
par ClusteringNetwork.host[19].ipv4.arp retryTimeout 1s
attr unit s
par ClusteringNetwork.host[19].ipv4.arp retryCount 3
par ClusteringNetwork.host[19].ipv4.arp cacheTimeout 120s
attr unit s
par ClusteringNetwork.host[19].ipv4.arp proxyArpInterfaces "\"\""
scalar ClusteringNetwork.host[19].ipv4.arp arpResolutionFailed:count 0
attr recordingmode count
attr title "ARP failed resolutions, count"
scalar ClusteringNetwork.host[19].ipv4.arp arpResolutionCompleted:count 7
attr recordingmode count
attr title "ARP completed resolutions, count"
scalar ClusteringNetwork.host[19].ipv4.arp arpResolutionInitiated:count 3
attr recordingmode count
attr title "ARP initiated resolutions, count"
scalar ClusteringNetwork.host[19].ipv4.arp arpReplySent:count 1
attr recordingmode count
attr source arpReplySent
attr title "ARP replies sent, count"
scalar ClusteringNetwork.host[19].ipv4.arp arpReplySent:sum(packetBytes) 28
attr recordingmode sum(packetBytes)
attr source arpReplySent
attr title "ARP replies sent, sum(packetBytes)"
scalar ClusteringNetwork.host[19].ipv4.arp arpRequestSent:count 3
attr recordingmode count
attr source arpRequestSent
attr title "ARP request sent, count"
scalar ClusteringNetwork.host[19].ipv4.arp arpRequestSent:sum(packetBytes) 84
attr recordingmode sum(packetBytes)
attr source arpRequestSent
attr title "ARP request sent, sum(packetBytes)"
par ClusteringNetwork.host[19].ipv4.lp typename "\"inet.common.MessageDispatcher\""
par ClusteringNetwork.host[19].ipv4.lp displayStringTextFormat "\"processed %p pk (%l)\""
par ClusteringNetwork.host[19].ipv4.lp forwardServiceRegistration true
par ClusteringNetwork.host[19].ipv4.lp forwardProtocolRegistration true
par ClusteringNetwork.host[19].ipv4 typename "\"inet.networklayer.ipv4.Ipv4NetworkLayer\""
par ClusteringNetwork.host[19].ipv4 forwarding true
par ClusteringNetwork.host[19].ipv4 multicastForwarding false
par ClusteringNetwork.host[19].ipv4 interfaceTableModule "\"ClusteringNetwork.host[19].interfaceTable\""
par ClusteringNetwork.host[19].ipv4 displayStringTextFormat "\"%i\""
par ClusteringNetwork.host[19].nl typename "\"inet.common.MessageDispatcher\""
par ClusteringNetwork.host[19].nl displayStringTextFormat "\"processed %p pk (%l)\""
par ClusteringNetwork.host[19].nl forwardServiceRegistration true
par ClusteringNetwork.host[19].nl forwardProtocolRegistration true
par ClusteringNetwork.host[19].udp typename "\"inet.transportlayer.udp.Udp\""
par ClusteringNetwork.host[19].udp interfaceTableModule "\"ClusteringNetwork.host[19].interfaceTable\""
par ClusteringNetwork.host[19].udp icmpModule "\"^.ipv4.icmp\""
par ClusteringNetwork.host[19].udp icmpv6Module "\"^.ipv6.icmpv6\""
par ClusteringNetwork.host[19].udp crcMode "\"declared\""
attr enum disabled,declared,computed
par ClusteringNetwork.host[19].udp defaultMulticastLoop true
scalar ClusteringNetwork.host[19].udp packetReceived:count 495
attr interpolationmode none
attr recordingmode count
attr source packetReceived
attr title "packets received, count"
scalar ClusteringNetwork.host[19].udp packetReceived:sum(packetBytes) 14256
attr interpolationmode none
attr recordingmode sum(packetBytes)
attr source packetReceived
attr title "packets received, sum(packetBytes)"
scalar ClusteringNetwork.host[19].udp packetSent:count 314
attr interpolationmode none
attr recordingmode count
attr source packetSent
attr title "packets sent, count"
scalar ClusteringNetwork.host[19].udp packetSent:sum(packetBytes) 16488
attr interpolationmode none
attr recordingmode sum(packetBytes)
attr source packetSent
attr title "packets sent, sum(packetBytes)"
scalar ClusteringNetwork.host[19].udp passedUpPk:count 495
attr interpolationmode none
attr recordingmode count
attr source packetSentToUpper
attr title "packets passed up, count"
scalar ClusteringNetwork.host[19].udp droppedPkWrongPort:count 0
attr interpolationmode none
attr recordingmode count
attr source packetDropReasonIsNoPortFound(packetDropped)
attr title "packets dropped (wrong port), count"
scalar ClusteringNetwork.host[19].udp droppedPkBadChecksum:count 0
attr interpolationmode none
attr recordingmode count
attr source packetDropReasonIsIncorrectlyReceived(packetDropped)
attr title "packets dropped (checksum error), count"
par ClusteringNetwork.host[19].tcp typename "\"inet.transportlayer.tcp.Tcp\""
par ClusteringNetwork.host[19].tcp crcMode "\"declared\""
attr enum declared,computed
par ClusteringNetwork.host[19].tcp advertisedWindow 7504
par ClusteringNetwork.host[19].tcp delayedAcksEnabled false
par ClusteringNetwork.host[19].tcp nagleEnabled true
par ClusteringNetwork.host[19].tcp limitedTransmitEnabled false
par ClusteringNetwork.host[19].tcp increasedIWEnabled false
par ClusteringNetwork.host[19].tcp sackSupport false
par ClusteringNetwork.host[19].tcp windowScalingSupport false
par ClusteringNetwork.host[19].tcp windowScalingFactor -1
par ClusteringNetwork.host[19].tcp timestampSupport false
par ClusteringNetwork.host[19].tcp mss 536
par ClusteringNetwork.host[19].tcp msl 120s
attr unit s
par ClusteringNetwork.host[19].tcp tcpAlgorithmClass "\"TcpReno\""
par ClusteringNetwork.host[19].tcp useDataNotification false
par ClusteringNetwork.host[19].tcp dupthresh 3
par ClusteringNetwork.host[19].tcp initialSsthresh 4294967295
par ClusteringNetwork.host[19].tcp stopOperationExtraTime 0s
attr unit s
par ClusteringNetwork.host[19].tcp stopOperationTimeout 2s
attr unit s
par ClusteringNetwork.host[19].tcp ecnWillingness false
par ClusteringNetwork.host[19].tcp dctcpGamma 0.0625
par ClusteringNetwork.host[19].tn typename "\"inet.common.MessageDispatcher\""
par ClusteringNetwork.host[19].tn displayStringTextFormat "\"processed %p pk (%l)\""
par ClusteringNetwork.host[19].tn forwardServiceRegistration true
par ClusteringNetwork.host[19].tn forwardProtocolRegistration true
par ClusteringNetwork.host[19].app[0] typename "\"clusteringmanet.simulations.GraphColoringClustering\""
par ClusteringNetwork.host[19].app[0] helloInterval 1s
attr unit s
par ClusteringNetwork.host[19].app[0] helloJitter 0.04s
attr unit s
par ClusteringNetwork.host[19].app[0] neighborTimeout 4s
attr unit s
par ClusteringNetwork.host[19].app[0] maintenanceInterval 1s
attr unit s
par ClusteringNetwork.host[19].app[0] coloringInterval 1.5s
attr unit s
par ClusteringNetwork.host[19].app[0] dataInterval 3s
attr unit s
par ClusteringNetwork.host[19].app[0] dataJitter 0.5s
attr unit s
par ClusteringNetwork.host[19].app[0] localPort 5000
par ClusteringNetwork.host[19].app[0] destPort 5000
scalar ClusteringNetwork.host[19].app[0] "Final Sent" 48
scalar ClusteringNetwork.host[19].app[0] "Final Received" 15
scalar ClusteringNetwork.host[19].app[0] "Packet Delivery Ratio" 0.3125
scalar ClusteringNetwork.host[19].app[0] totalReceived:count 15
attr recordingmode count
attr source dataReceived
scalar ClusteringNetwork.host[19].app[0] totalSent:count 48
attr recordingmode count
attr source dataSent
par ClusteringNetwork.host[19].at typename "\"inet.common.MessageDispatcher\""
par ClusteringNetwork.host[19].at displayStringTextFormat "\"processed %p pk (%l)\""
par ClusteringNetwork.host[19].at forwardServiceRegistration true
par ClusteringNetwork.host[19].at forwardProtocolRegistration true
par ClusteringNetwork.host[19] typename "\"clusteringmanet.simulations.GCCAdhocHost\""
par ClusteringNetwork.host[19] hasStatus false
par ClusteringNetwork.host[19] osgModel "\"\""
par ClusteringNetwork.host[19] osgModelColor "\"\""
par ClusteringNetwork.host[19] canvasImage "\"\""
par ClusteringNetwork.host[19] canvasImageColor "\"\""
par ClusteringNetwork.host[19] recordPcap false
par ClusteringNetwork.host[19] numPcapRecorders 0
par ClusteringNetwork.host[19] numLoInterfaces 1
par ClusteringNetwork.host[19] numWlanInterfaces 1
par ClusteringNetwork.host[19] numEthInterfaces 0
par ClusteringNetwork.host[19] numPppInterfaces 0
par ClusteringNetwork.host[19] numTunInterfaces 0
par ClusteringNetwork.host[19] numVirtInterfaces 0
par ClusteringNetwork.host[19] fcsMode "\"declared\""
attr enum declared,computed
par ClusteringNetwork.host[19] hasIpv4 true
par ClusteringNetwork.host[19] hasIpv6 false
par ClusteringNetwork.host[19] hasGn false
par ClusteringNetwork.host[19] forwarding true
par ClusteringNetwork.host[19] multicastForwarding false
par ClusteringNetwork.host[19] hasUdp true
par ClusteringNetwork.host[19] hasTcp true
par ClusteringNetwork.host[19] hasSctp false
par ClusteringNetwork.host[19] numApps 1
par ClusteringNetwork typename "\"clusteringmanet.simulations.ClusteringNetwork\""
par ClusteringNetwork numHosts 20
scalar ClusteringNetwork globalBits:last 592800
attr recordingmode last
attr source sum(throughputBits)
attr title "Total Bits Received, last"
scalar ClusteringNetwork globalMembers:timeavg 1.4330432093106
attr recordingmode timeavg
attr source sum(memberChange)
attr title "Total Number of Members, timeavg"
scalar ClusteringNetwork globalMembers:last 2
attr recordingmode last
attr source sum(memberChange)
attr title "Total Number of Members, last"
scalar ClusteringNetwork globalGWs:timeavg 12.19061204874
attr recordingmode timeavg
attr source sum(gwChange)
attr title "Total Number of Gateways, timeavg"
scalar ClusteringNetwork globalGWs:last 12
attr recordingmode last
attr source sum(gwChange)
attr title "Total Number of Gateways, last"
scalar ClusteringNetwork globalCHs:timeavg 6.2388888888889
attr recordingmode timeavg
attr source sum(chChange)
attr title "Total Number of Cluster Heads, timeavg"
scalar ClusteringNetwork globalCHs:last 6
attr recordingmode last
attr source sum(chChange)
attr title "Total Number of Cluster Heads, last"
scalar ClusteringNetwork globalReceived:last 741
attr recordingmode last
attr source sum(dataReceived)
attr title "Total Packets Received by Network, last"
scalar ClusteringNetwork globalSent:last 1037
attr recordingmode last
attr source sum(dataSent)
attr title "Total Packets Sent by Network, last"
scalar ClusteringNetwork globalDelay:mean 0.038482073361294
attr recordingmode mean
attr source delay
attr title "Average End-to-End Delay, mean"

